<?xml version="1.0" encoding="UTF-8"?>

<!-- generated on 03/04/21 21:06:34 by Eclipse SUMO netedit Version 1.7.0
<configuration xmlns:xsi="http://www.w3.org/2001/XMLSchema-instance" xsi:noNamespaceSchemaLocation="http://sumo.dlr.de/xsd/netconvertConfiguration.xsd">

    <input>
        <sumo-net-file value="C:\Users\marco\PycharmProjects\crossing\multi_classic_tls_classic_precedence\intersection.net.xml"/>
    </input>

    <output>
        <output-file value="C:\Users\marco\PycharmProjects\crossing\multi_classic_tls_classic_precedence\intersection.net.xml"/>
    </output>

    <processing>
        <geometry.min-radius.fix.railways value="false"/>
        <geometry.max-grade.fix value="false"/>
        <offset.disable-normalization value="true"/>
        <lefthand value="false"/>
    </processing>

    <junctions>
        <no-turnarounds value="true"/>
        <junctions.corner-detail value="5"/>
        <junctions.limit-turn-speed value="5.5"/>
        <rectangular-lane-cut value="false"/>
    </junctions>

    <pedestrian>
        <walkingareas value="false"/>
    </pedestrian>

    <report>
        <aggregate-warnings value="5"/>
    </report>

</configuration>
-->

<net version="1.6" junctionCornerDetail="5" limitTurnSpeed="5.50" xmlns:xsi="http://www.w3.org/2001/XMLSchema-instance" xsi:noNamespaceSchemaLocation="http://sumo.dlr.de/xsd/net_file.xsd">

    <location netOffset="0.00,0.00" convBoundary="-1200.00,0.00,0.00,1200.00" origBoundary="-10000000000.00,-10000000000.00,10000000000.00,10000000000.00" projParameter="!"/>

    <edge id=":n1_0" function="internal">
        <lane id=":n1_0_0" index="0" speed="6.51" length="9.03" shape="-1008.00,1013.60 -1008.35,1011.15 -1009.40,1009.40 -1011.15,1008.35 -1013.60,1008.00"/>
    </edge>
    <edge id=":n1_1" function="internal">
        <lane id=":n1_1_0" index="0" speed="13.89" length="27.20" shape="-1004.80,1013.60 -1004.80,986.40"/>
    </edge>
    <edge id=":n1_2" function="internal">
        <lane id=":n1_2_0" index="0" speed="10.36" length="13.42" shape="-1001.60,1013.60 -1000.65,1006.95 -997.80,1002.20 -996.80,1001.60"/>
    </edge>
    <edge id=":n1_12" function="internal">
        <lane id=":n1_12_0" index="0" speed="10.36" length="11.09" shape="-996.80,1001.60 -993.05,999.35 -986.40,998.40"/>
    </edge>
    <edge id=":n1_3" function="internal">
        <lane id=":n1_3_0" index="0" speed="6.51" length="9.03" shape="-986.40,1008.00 -988.85,1008.35 -990.60,1009.40 -991.65,1011.15 -992.00,1013.60"/>
    </edge>
    <edge id=":n1_4" function="internal">
        <lane id=":n1_4_0" index="0" speed="13.89" length="27.20" shape="-986.40,1004.80 -1013.60,1004.80"/>
    </edge>
    <edge id=":n1_5" function="internal">
        <lane id=":n1_5_0" index="0" speed="10.36" length="24.51" shape="-986.40,1001.60 -993.05,1000.65 -997.80,997.80 -1000.65,993.05 -1001.60,986.40"/>
    </edge>
    <edge id=":n1_6" function="internal">
        <lane id=":n1_6_0" index="0" speed="6.51" length="9.03" shape="-992.00,986.40 -991.65,988.85 -990.60,990.60 -988.85,991.65 -986.40,992.00"/>
    </edge>
    <edge id=":n1_7" function="internal">
        <lane id=":n1_7_0" index="0" speed="13.89" length="27.20" shape="-995.20,986.40 -995.20,1013.60"/>
    </edge>
    <edge id=":n1_8" function="internal">
        <lane id=":n1_8_0" index="0" speed="10.36" length="13.42" shape="-998.40,986.40 -999.35,993.05 -1002.20,997.80 -1003.20,998.40"/>
    </edge>
    <edge id=":n1_13" function="internal">
        <lane id=":n1_13_0" index="0" speed="10.36" length="11.09" shape="-1003.20,998.40 -1006.95,1000.65 -1013.60,1001.60"/>
    </edge>
    <edge id=":n1_9" function="internal">
        <lane id=":n1_9_0" index="0" speed="6.51" length="9.03" shape="-1013.60,992.00 -1011.15,991.65 -1009.40,990.60 -1008.35,988.85 -1008.00,986.40"/>
    </edge>
    <edge id=":n1_10" function="internal">
        <lane id=":n1_10_0" index="0" speed="13.89" length="27.20" shape="-1013.60,995.20 -986.40,995.20"/>
    </edge>
    <edge id=":n1_11" function="internal">
        <lane id=":n1_11_0" index="0" speed="10.36" length="24.51" shape="-1013.60,998.40 -1006.95,999.35 -1002.20,1002.20 -999.35,1006.95 -998.40,1013.60"/>
    </edge>
    <edge id=":n10_0" function="internal">
        <lane id=":n10_0_0" index="0" speed="6.51" length="9.03" shape="-208.00,813.60 -208.35,811.15 -209.40,809.40 -211.15,808.35 -213.60,808.00"/>
    </edge>
    <edge id=":n10_1" function="internal">
        <lane id=":n10_1_0" index="0" speed="13.89" length="27.20" shape="-204.80,813.60 -204.80,786.40"/>
    </edge>
    <edge id=":n10_2" function="internal">
        <lane id=":n10_2_0" index="0" speed="10.36" length="13.42" shape="-201.60,813.60 -200.65,806.95 -197.80,802.20 -196.80,801.60"/>
    </edge>
    <edge id=":n10_12" function="internal">
        <lane id=":n10_12_0" index="0" speed="10.36" length="11.09" shape="-196.80,801.60 -193.05,799.35 -186.40,798.40"/>
    </edge>
    <edge id=":n10_3" function="internal">
        <lane id=":n10_3_0" index="0" speed="6.51" length="9.03" shape="-186.40,808.00 -188.85,808.35 -190.60,809.40 -191.65,811.15 -192.00,813.60"/>
    </edge>
    <edge id=":n10_4" function="internal">
        <lane id=":n10_4_0" index="0" speed="13.89" length="27.20" shape="-186.40,804.80 -213.60,804.80"/>
    </edge>
    <edge id=":n10_5" function="internal">
        <lane id=":n10_5_0" index="0" speed="10.36" length="24.51" shape="-186.40,801.60 -193.05,800.65 -197.80,797.80 -200.65,793.05 -201.60,786.40"/>
    </edge>
    <edge id=":n10_6" function="internal">
        <lane id=":n10_6_0" index="0" speed="6.51" length="9.03" shape="-192.00,786.40 -191.65,788.85 -190.60,790.60 -188.85,791.65 -186.40,792.00"/>
    </edge>
    <edge id=":n10_7" function="internal">
        <lane id=":n10_7_0" index="0" speed="13.89" length="27.20" shape="-195.20,786.40 -195.20,813.60"/>
    </edge>
    <edge id=":n10_8" function="internal">
        <lane id=":n10_8_0" index="0" speed="10.36" length="13.42" shape="-198.40,786.40 -199.35,793.05 -202.20,797.80 -203.20,798.40"/>
    </edge>
    <edge id=":n10_13" function="internal">
        <lane id=":n10_13_0" index="0" speed="10.36" length="11.09" shape="-203.20,798.40 -206.95,800.65 -213.60,801.60"/>
    </edge>
    <edge id=":n10_9" function="internal">
        <lane id=":n10_9_0" index="0" speed="6.51" length="9.03" shape="-213.60,792.00 -211.15,791.65 -209.40,790.60 -208.35,788.85 -208.00,786.40"/>
    </edge>
    <edge id=":n10_10" function="internal">
        <lane id=":n10_10_0" index="0" speed="13.89" length="27.20" shape="-213.60,795.20 -186.40,795.20"/>
    </edge>
    <edge id=":n10_11" function="internal">
        <lane id=":n10_11_0" index="0" speed="10.36" length="24.51" shape="-213.60,798.40 -206.95,799.35 -202.20,802.20 -199.35,806.95 -198.40,813.60"/>
    </edge>
    <edge id=":n11_0" function="internal">
        <lane id=":n11_0_0" index="0" speed="6.51" length="9.03" shape="-1008.00,613.60 -1008.35,611.15 -1009.40,609.40 -1011.15,608.35 -1013.60,608.00"/>
    </edge>
    <edge id=":n11_1" function="internal">
        <lane id=":n11_1_0" index="0" speed="13.89" length="27.20" shape="-1004.80,613.60 -1004.80,586.40"/>
    </edge>
    <edge id=":n11_2" function="internal">
        <lane id=":n11_2_0" index="0" speed="10.36" length="13.42" shape="-1001.60,613.60 -1000.65,606.95 -997.80,602.20 -996.80,601.60"/>
    </edge>
    <edge id=":n11_12" function="internal">
        <lane id=":n11_12_0" index="0" speed="10.36" length="11.09" shape="-996.80,601.60 -993.05,599.35 -986.40,598.40"/>
    </edge>
    <edge id=":n11_3" function="internal">
        <lane id=":n11_3_0" index="0" speed="6.51" length="9.03" shape="-986.40,608.00 -988.85,608.35 -990.60,609.40 -991.65,611.15 -992.00,613.60"/>
    </edge>
    <edge id=":n11_4" function="internal">
        <lane id=":n11_4_0" index="0" speed="13.89" length="27.20" shape="-986.40,604.80 -1013.60,604.80"/>
    </edge>
    <edge id=":n11_5" function="internal">
        <lane id=":n11_5_0" index="0" speed="10.36" length="24.51" shape="-986.40,601.60 -993.05,600.65 -997.80,597.80 -1000.65,593.05 -1001.60,586.40"/>
    </edge>
    <edge id=":n11_6" function="internal">
        <lane id=":n11_6_0" index="0" speed="6.51" length="9.03" shape="-992.00,586.40 -991.65,588.85 -990.60,590.60 -988.85,591.65 -986.40,592.00"/>
    </edge>
    <edge id=":n11_7" function="internal">
        <lane id=":n11_7_0" index="0" speed="13.89" length="27.20" shape="-995.20,586.40 -995.20,613.60"/>
    </edge>
    <edge id=":n11_8" function="internal">
        <lane id=":n11_8_0" index="0" speed="10.36" length="13.42" shape="-998.40,586.40 -999.35,593.05 -1002.20,597.80 -1003.20,598.40"/>
    </edge>
    <edge id=":n11_13" function="internal">
        <lane id=":n11_13_0" index="0" speed="10.36" length="11.09" shape="-1003.20,598.40 -1006.95,600.65 -1013.60,601.60"/>
    </edge>
    <edge id=":n11_9" function="internal">
        <lane id=":n11_9_0" index="0" speed="6.51" length="9.03" shape="-1013.60,592.00 -1011.15,591.65 -1009.40,590.60 -1008.35,588.85 -1008.00,586.40"/>
    </edge>
    <edge id=":n11_10" function="internal">
        <lane id=":n11_10_0" index="0" speed="13.89" length="27.20" shape="-1013.60,595.20 -986.40,595.20"/>
    </edge>
    <edge id=":n11_11" function="internal">
        <lane id=":n11_11_0" index="0" speed="10.36" length="24.51" shape="-1013.60,598.40 -1006.95,599.35 -1002.20,602.20 -999.35,606.95 -998.40,613.60"/>
    </edge>
    <edge id=":n12_0" function="internal">
        <lane id=":n12_0_0" index="0" speed="6.51" length="9.03" shape="-808.00,613.60 -808.35,611.15 -809.40,609.40 -811.15,608.35 -813.60,608.00"/>
    </edge>
    <edge id=":n12_1" function="internal">
        <lane id=":n12_1_0" index="0" speed="13.89" length="27.20" shape="-804.80,613.60 -804.80,586.40"/>
    </edge>
    <edge id=":n12_2" function="internal">
        <lane id=":n12_2_0" index="0" speed="10.36" length="13.42" shape="-801.60,613.60 -800.65,606.95 -797.80,602.20 -796.80,601.60"/>
    </edge>
    <edge id=":n12_12" function="internal">
        <lane id=":n12_12_0" index="0" speed="10.36" length="11.09" shape="-796.80,601.60 -793.05,599.35 -786.40,598.40"/>
    </edge>
    <edge id=":n12_3" function="internal">
        <lane id=":n12_3_0" index="0" speed="6.51" length="9.03" shape="-786.40,608.00 -788.85,608.35 -790.60,609.40 -791.65,611.15 -792.00,613.60"/>
    </edge>
    <edge id=":n12_4" function="internal">
        <lane id=":n12_4_0" index="0" speed="13.89" length="27.20" shape="-786.40,604.80 -813.60,604.80"/>
    </edge>
    <edge id=":n12_5" function="internal">
        <lane id=":n12_5_0" index="0" speed="10.36" length="13.42" shape="-786.40,601.60 -793.05,600.65 -797.80,597.80 -798.40,596.80"/>
    </edge>
    <edge id=":n12_13" function="internal">
        <lane id=":n12_13_0" index="0" speed="10.36" length="11.09" shape="-798.40,596.80 -800.65,593.05 -801.60,586.40"/>
    </edge>
    <edge id=":n12_6" function="internal">
        <lane id=":n12_6_0" index="0" speed="6.51" length="9.03" shape="-792.00,586.40 -791.65,588.85 -790.60,590.60 -788.85,591.65 -786.40,592.00"/>
    </edge>
    <edge id=":n12_7" function="internal">
        <lane id=":n12_7_0" index="0" speed="13.89" length="27.20" shape="-795.20,586.40 -795.20,613.60"/>
    </edge>
    <edge id=":n12_8" function="internal">
        <lane id=":n12_8_0" index="0" speed="10.36" length="13.42" shape="-798.40,586.40 -799.35,593.05 -802.20,597.80 -803.20,598.40"/>
    </edge>
    <edge id=":n12_14" function="internal">
        <lane id=":n12_14_0" index="0" speed="10.36" length="11.09" shape="-803.20,598.40 -806.95,600.65 -813.60,601.60"/>
    </edge>
    <edge id=":n12_9" function="internal">
        <lane id=":n12_9_0" index="0" speed="6.51" length="9.03" shape="-813.60,592.00 -811.15,591.65 -809.40,590.60 -808.35,588.85 -808.00,586.40"/>
    </edge>
    <edge id=":n12_10" function="internal">
        <lane id=":n12_10_0" index="0" speed="13.89" length="27.20" shape="-813.60,595.20 -786.40,595.20"/>
    </edge>
    <edge id=":n12_11" function="internal">
        <lane id=":n12_11_0" index="0" speed="10.36" length="13.42" shape="-813.60,598.40 -806.95,599.35 -802.20,602.20 -801.60,603.20"/>
    </edge>
    <edge id=":n12_15" function="internal">
        <lane id=":n12_15_0" index="0" speed="10.36" length="11.09" shape="-801.60,603.20 -799.35,606.95 -798.40,613.60"/>
    </edge>
    <edge id=":n13_0" function="internal">
        <lane id=":n13_0_0" index="0" speed="6.51" length="9.03" shape="-608.00,613.60 -608.35,611.15 -609.40,609.40 -611.15,608.35 -613.60,608.00"/>
    </edge>
    <edge id=":n13_1" function="internal">
        <lane id=":n13_1_0" index="0" speed="13.89" length="27.20" shape="-604.80,613.60 -604.80,586.40"/>
    </edge>
    <edge id=":n13_2" function="internal">
        <lane id=":n13_2_0" index="0" speed="10.36" length="13.42" shape="-601.60,613.60 -600.65,606.95 -597.80,602.20 -596.80,601.60"/>
    </edge>
    <edge id=":n13_12" function="internal">
        <lane id=":n13_12_0" index="0" speed="10.36" length="11.09" shape="-596.80,601.60 -593.05,599.35 -586.40,598.40"/>
    </edge>
    <edge id=":n13_3" function="internal">
        <lane id=":n13_3_0" index="0" speed="6.51" length="9.03" shape="-586.40,608.00 -588.85,608.35 -590.60,609.40 -591.65,611.15 -592.00,613.60"/>
    </edge>
    <edge id=":n13_4" function="internal">
        <lane id=":n13_4_0" index="0" speed="13.89" length="27.20" shape="-586.40,604.80 -613.60,604.80"/>
    </edge>
    <edge id=":n13_5" function="internal">
        <lane id=":n13_5_0" index="0" speed="10.36" length="13.42" shape="-586.40,601.60 -593.05,600.65 -597.80,597.80 -598.40,596.80"/>
    </edge>
    <edge id=":n13_13" function="internal">
        <lane id=":n13_13_0" index="0" speed="10.36" length="11.09" shape="-598.40,596.80 -600.65,593.05 -601.60,586.40"/>
    </edge>
    <edge id=":n13_6" function="internal">
        <lane id=":n13_6_0" index="0" speed="6.51" length="9.03" shape="-592.00,586.40 -591.65,588.85 -590.60,590.60 -588.85,591.65 -586.40,592.00"/>
    </edge>
    <edge id=":n13_7" function="internal">
        <lane id=":n13_7_0" index="0" speed="13.89" length="27.20" shape="-595.20,586.40 -595.20,613.60"/>
    </edge>
    <edge id=":n13_8" function="internal">
        <lane id=":n13_8_0" index="0" speed="10.36" length="13.42" shape="-598.40,586.40 -599.35,593.05 -602.20,597.80 -603.20,598.40"/>
    </edge>
    <edge id=":n13_14" function="internal">
        <lane id=":n13_14_0" index="0" speed="10.36" length="11.09" shape="-603.20,598.40 -606.95,600.65 -613.60,601.60"/>
    </edge>
    <edge id=":n13_9" function="internal">
        <lane id=":n13_9_0" index="0" speed="6.51" length="9.03" shape="-613.60,592.00 -611.15,591.65 -609.40,590.60 -608.35,588.85 -608.00,586.40"/>
    </edge>
    <edge id=":n13_10" function="internal">
        <lane id=":n13_10_0" index="0" speed="13.89" length="27.20" shape="-613.60,595.20 -586.40,595.20"/>
    </edge>
    <edge id=":n13_11" function="internal">
        <lane id=":n13_11_0" index="0" speed="10.36" length="13.42" shape="-613.60,598.40 -606.95,599.35 -602.20,602.20 -601.60,603.20"/>
    </edge>
    <edge id=":n13_15" function="internal">
        <lane id=":n13_15_0" index="0" speed="10.36" length="11.09" shape="-601.60,603.20 -599.35,606.95 -598.40,613.60"/>
    </edge>
    <edge id=":n14_0" function="internal">
        <lane id=":n14_0_0" index="0" speed="6.51" length="9.03" shape="-408.00,613.60 -408.35,611.15 -409.40,609.40 -411.15,608.35 -413.60,608.00"/>
    </edge>
    <edge id=":n14_1" function="internal">
        <lane id=":n14_1_0" index="0" speed="13.89" length="27.20" shape="-404.80,613.60 -404.80,586.40"/>
    </edge>
    <edge id=":n14_2" function="internal">
        <lane id=":n14_2_0" index="0" speed="10.36" length="13.42" shape="-401.60,613.60 -400.65,606.95 -397.80,602.20 -396.80,601.60"/>
    </edge>
    <edge id=":n14_12" function="internal">
        <lane id=":n14_12_0" index="0" speed="10.36" length="11.09" shape="-396.80,601.60 -393.05,599.35 -386.40,598.40"/>
    </edge>
    <edge id=":n14_3" function="internal">
        <lane id=":n14_3_0" index="0" speed="6.51" length="9.03" shape="-386.40,608.00 -388.85,608.35 -390.60,609.40 -391.65,611.15 -392.00,613.60"/>
    </edge>
    <edge id=":n14_4" function="internal">
        <lane id=":n14_4_0" index="0" speed="13.89" length="27.20" shape="-386.40,604.80 -413.60,604.80"/>
    </edge>
    <edge id=":n14_5" function="internal">
        <lane id=":n14_5_0" index="0" speed="10.36" length="13.42" shape="-386.40,601.60 -393.05,600.65 -397.80,597.80 -398.40,596.80"/>
    </edge>
    <edge id=":n14_13" function="internal">
        <lane id=":n14_13_0" index="0" speed="10.36" length="11.09" shape="-398.40,596.80 -400.65,593.05 -401.60,586.40"/>
    </edge>
    <edge id=":n14_6" function="internal">
        <lane id=":n14_6_0" index="0" speed="6.51" length="9.03" shape="-392.00,586.40 -391.65,588.85 -390.60,590.60 -388.85,591.65 -386.40,592.00"/>
    </edge>
    <edge id=":n14_7" function="internal">
        <lane id=":n14_7_0" index="0" speed="13.89" length="27.20" shape="-395.20,586.40 -395.20,613.60"/>
    </edge>
    <edge id=":n14_8" function="internal">
        <lane id=":n14_8_0" index="0" speed="10.36" length="13.42" shape="-398.40,586.40 -399.35,593.05 -402.20,597.80 -403.20,598.40"/>
    </edge>
    <edge id=":n14_14" function="internal">
        <lane id=":n14_14_0" index="0" speed="10.36" length="11.09" shape="-403.20,598.40 -406.95,600.65 -413.60,601.60"/>
    </edge>
    <edge id=":n14_9" function="internal">
        <lane id=":n14_9_0" index="0" speed="6.51" length="9.03" shape="-413.60,592.00 -411.15,591.65 -409.40,590.60 -408.35,588.85 -408.00,586.40"/>
    </edge>
    <edge id=":n14_10" function="internal">
        <lane id=":n14_10_0" index="0" speed="13.89" length="27.20" shape="-413.60,595.20 -386.40,595.20"/>
    </edge>
    <edge id=":n14_11" function="internal">
        <lane id=":n14_11_0" index="0" speed="10.36" length="13.42" shape="-413.60,598.40 -406.95,599.35 -402.20,602.20 -401.60,603.20"/>
    </edge>
    <edge id=":n14_15" function="internal">
        <lane id=":n14_15_0" index="0" speed="10.36" length="11.09" shape="-401.60,603.20 -399.35,606.95 -398.40,613.60"/>
    </edge>
    <edge id=":n15_0" function="internal">
        <lane id=":n15_0_0" index="0" speed="6.51" length="9.03" shape="-208.00,613.60 -208.35,611.15 -209.40,609.40 -211.15,608.35 -213.60,608.00"/>
    </edge>
    <edge id=":n15_1" function="internal">
        <lane id=":n15_1_0" index="0" speed="13.89" length="27.20" shape="-204.80,613.60 -204.80,586.40"/>
    </edge>
    <edge id=":n15_2" function="internal">
        <lane id=":n15_2_0" index="0" speed="10.36" length="13.42" shape="-201.60,613.60 -200.65,606.95 -197.80,602.20 -196.80,601.60"/>
    </edge>
    <edge id=":n15_12" function="internal">
        <lane id=":n15_12_0" index="0" speed="10.36" length="11.09" shape="-196.80,601.60 -193.05,599.35 -186.40,598.40"/>
    </edge>
    <edge id=":n15_3" function="internal">
        <lane id=":n15_3_0" index="0" speed="6.51" length="9.03" shape="-186.40,608.00 -188.85,608.35 -190.60,609.40 -191.65,611.15 -192.00,613.60"/>
    </edge>
    <edge id=":n15_4" function="internal">
        <lane id=":n15_4_0" index="0" speed="13.89" length="27.20" shape="-186.40,604.80 -213.60,604.80"/>
    </edge>
    <edge id=":n15_5" function="internal">
        <lane id=":n15_5_0" index="0" speed="10.36" length="24.51" shape="-186.40,601.60 -193.05,600.65 -197.80,597.80 -200.65,593.05 -201.60,586.40"/>
    </edge>
    <edge id=":n15_6" function="internal">
        <lane id=":n15_6_0" index="0" speed="6.51" length="9.03" shape="-192.00,586.40 -191.65,588.85 -190.60,590.60 -188.85,591.65 -186.40,592.00"/>
    </edge>
    <edge id=":n15_7" function="internal">
        <lane id=":n15_7_0" index="0" speed="13.89" length="27.20" shape="-195.20,586.40 -195.20,613.60"/>
    </edge>
    <edge id=":n15_8" function="internal">
        <lane id=":n15_8_0" index="0" speed="10.36" length="13.42" shape="-198.40,586.40 -199.35,593.05 -202.20,597.80 -203.20,598.40"/>
    </edge>
    <edge id=":n15_13" function="internal">
        <lane id=":n15_13_0" index="0" speed="10.36" length="11.09" shape="-203.20,598.40 -206.95,600.65 -213.60,601.60"/>
    </edge>
    <edge id=":n15_9" function="internal">
        <lane id=":n15_9_0" index="0" speed="6.51" length="9.03" shape="-213.60,592.00 -211.15,591.65 -209.40,590.60 -208.35,588.85 -208.00,586.40"/>
    </edge>
    <edge id=":n15_10" function="internal">
        <lane id=":n15_10_0" index="0" speed="13.89" length="27.20" shape="-213.60,595.20 -186.40,595.20"/>
    </edge>
    <edge id=":n15_11" function="internal">
        <lane id=":n15_11_0" index="0" speed="10.36" length="24.51" shape="-213.60,598.40 -206.95,599.35 -202.20,602.20 -199.35,606.95 -198.40,613.60"/>
    </edge>
    <edge id=":n16_0" function="internal">
        <lane id=":n16_0_0" index="0" speed="6.51" length="9.03" shape="-1008.00,413.60 -1008.35,411.15 -1009.40,409.40 -1011.15,408.35 -1013.60,408.00"/>
    </edge>
    <edge id=":n16_1" function="internal">
        <lane id=":n16_1_0" index="0" speed="13.89" length="27.20" shape="-1004.80,413.60 -1004.80,386.40"/>
    </edge>
    <edge id=":n16_2" function="internal">
        <lane id=":n16_2_0" index="0" speed="10.36" length="13.42" shape="-1001.60,413.60 -1000.65,406.95 -997.80,402.20 -996.80,401.60"/>
    </edge>
    <edge id=":n16_12" function="internal">
        <lane id=":n16_12_0" index="0" speed="10.36" length="11.09" shape="-996.80,401.60 -993.05,399.35 -986.40,398.40"/>
    </edge>
    <edge id=":n16_3" function="internal">
        <lane id=":n16_3_0" index="0" speed="6.51" length="9.03" shape="-986.40,408.00 -988.85,408.35 -990.60,409.40 -991.65,411.15 -992.00,413.60"/>
    </edge>
    <edge id=":n16_4" function="internal">
        <lane id=":n16_4_0" index="0" speed="13.89" length="27.20" shape="-986.40,404.80 -1013.60,404.80"/>
    </edge>
    <edge id=":n16_5" function="internal">
        <lane id=":n16_5_0" index="0" speed="10.36" length="24.51" shape="-986.40,401.60 -993.05,400.65 -997.80,397.80 -1000.65,393.05 -1001.60,386.40"/>
    </edge>
    <edge id=":n16_6" function="internal">
        <lane id=":n16_6_0" index="0" speed="6.51" length="9.03" shape="-992.00,386.40 -991.65,388.85 -990.60,390.60 -988.85,391.65 -986.40,392.00"/>
    </edge>
    <edge id=":n16_7" function="internal">
        <lane id=":n16_7_0" index="0" speed="13.89" length="27.20" shape="-995.20,386.40 -995.20,413.60"/>
    </edge>
    <edge id=":n16_8" function="internal">
        <lane id=":n16_8_0" index="0" speed="10.36" length="13.42" shape="-998.40,386.40 -999.35,393.05 -1002.20,397.80 -1003.20,398.40"/>
    </edge>
    <edge id=":n16_13" function="internal">
        <lane id=":n16_13_0" index="0" speed="10.36" length="11.09" shape="-1003.20,398.40 -1006.95,400.65 -1013.60,401.60"/>
    </edge>
    <edge id=":n16_9" function="internal">
        <lane id=":n16_9_0" index="0" speed="6.51" length="9.03" shape="-1013.60,392.00 -1011.15,391.65 -1009.40,390.60 -1008.35,388.85 -1008.00,386.40"/>
    </edge>
    <edge id=":n16_10" function="internal">
        <lane id=":n16_10_0" index="0" speed="13.89" length="27.20" shape="-1013.60,395.20 -986.40,395.20"/>
    </edge>
    <edge id=":n16_11" function="internal">
        <lane id=":n16_11_0" index="0" speed="10.36" length="24.51" shape="-1013.60,398.40 -1006.95,399.35 -1002.20,402.20 -999.35,406.95 -998.40,413.60"/>
    </edge>
    <edge id=":n17_0" function="internal">
        <lane id=":n17_0_0" index="0" speed="6.51" length="9.03" shape="-808.00,413.60 -808.35,411.15 -809.40,409.40 -811.15,408.35 -813.60,408.00"/>
    </edge>
    <edge id=":n17_1" function="internal">
        <lane id=":n17_1_0" index="0" speed="13.89" length="27.20" shape="-804.80,413.60 -804.80,386.40"/>
    </edge>
    <edge id=":n17_2" function="internal">
        <lane id=":n17_2_0" index="0" speed="10.36" length="13.42" shape="-801.60,413.60 -800.65,406.95 -797.80,402.20 -796.80,401.60"/>
    </edge>
    <edge id=":n17_12" function="internal">
        <lane id=":n17_12_0" index="0" speed="10.36" length="11.09" shape="-796.80,401.60 -793.05,399.35 -786.40,398.40"/>
    </edge>
    <edge id=":n17_3" function="internal">
        <lane id=":n17_3_0" index="0" speed="6.51" length="9.03" shape="-786.40,408.00 -788.85,408.35 -790.60,409.40 -791.65,411.15 -792.00,413.60"/>
    </edge>
    <edge id=":n17_4" function="internal">
        <lane id=":n17_4_0" index="0" speed="13.89" length="27.20" shape="-786.40,404.80 -813.60,404.80"/>
    </edge>
    <edge id=":n17_5" function="internal">
        <lane id=":n17_5_0" index="0" speed="10.36" length="13.42" shape="-786.40,401.60 -793.05,400.65 -797.80,397.80 -798.40,396.80"/>
    </edge>
    <edge id=":n17_13" function="internal">
        <lane id=":n17_13_0" index="0" speed="10.36" length="11.09" shape="-798.40,396.80 -800.65,393.05 -801.60,386.40"/>
    </edge>
    <edge id=":n17_6" function="internal">
        <lane id=":n17_6_0" index="0" speed="6.51" length="9.03" shape="-792.00,386.40 -791.65,388.85 -790.60,390.60 -788.85,391.65 -786.40,392.00"/>
    </edge>
    <edge id=":n17_7" function="internal">
        <lane id=":n17_7_0" index="0" speed="13.89" length="27.20" shape="-795.20,386.40 -795.20,413.60"/>
    </edge>
    <edge id=":n17_8" function="internal">
        <lane id=":n17_8_0" index="0" speed="10.36" length="13.42" shape="-798.40,386.40 -799.35,393.05 -802.20,397.80 -803.20,398.40"/>
    </edge>
    <edge id=":n17_14" function="internal">
        <lane id=":n17_14_0" index="0" speed="10.36" length="11.09" shape="-803.20,398.40 -806.95,400.65 -813.60,401.60"/>
    </edge>
    <edge id=":n17_9" function="internal">
        <lane id=":n17_9_0" index="0" speed="6.51" length="9.03" shape="-813.60,392.00 -811.15,391.65 -809.40,390.60 -808.35,388.85 -808.00,386.40"/>
    </edge>
    <edge id=":n17_10" function="internal">
        <lane id=":n17_10_0" index="0" speed="13.89" length="27.20" shape="-813.60,395.20 -786.40,395.20"/>
    </edge>
    <edge id=":n17_11" function="internal">
        <lane id=":n17_11_0" index="0" speed="10.36" length="13.42" shape="-813.60,398.40 -806.95,399.35 -802.20,402.20 -801.60,403.20"/>
    </edge>
    <edge id=":n17_15" function="internal">
        <lane id=":n17_15_0" index="0" speed="10.36" length="11.09" shape="-801.60,403.20 -799.35,406.95 -798.40,413.60"/>
    </edge>
    <edge id=":n18_0" function="internal">
        <lane id=":n18_0_0" index="0" speed="6.51" length="9.03" shape="-608.00,413.60 -608.35,411.15 -609.40,409.40 -611.15,408.35 -613.60,408.00"/>
    </edge>
    <edge id=":n18_1" function="internal">
        <lane id=":n18_1_0" index="0" speed="13.89" length="27.20" shape="-604.80,413.60 -604.80,386.40"/>
    </edge>
    <edge id=":n18_2" function="internal">
        <lane id=":n18_2_0" index="0" speed="10.36" length="13.42" shape="-601.60,413.60 -600.65,406.95 -597.80,402.20 -596.80,401.60"/>
    </edge>
    <edge id=":n18_12" function="internal">
        <lane id=":n18_12_0" index="0" speed="10.36" length="11.09" shape="-596.80,401.60 -593.05,399.35 -586.40,398.40"/>
    </edge>
    <edge id=":n18_3" function="internal">
        <lane id=":n18_3_0" index="0" speed="6.51" length="9.03" shape="-586.40,408.00 -588.85,408.35 -590.60,409.40 -591.65,411.15 -592.00,413.60"/>
    </edge>
    <edge id=":n18_4" function="internal">
        <lane id=":n18_4_0" index="0" speed="13.89" length="27.20" shape="-586.40,404.80 -613.60,404.80"/>
    </edge>
    <edge id=":n18_5" function="internal">
        <lane id=":n18_5_0" index="0" speed="10.36" length="13.42" shape="-586.40,401.60 -593.05,400.65 -597.80,397.80 -598.40,396.80"/>
    </edge>
    <edge id=":n18_13" function="internal">
        <lane id=":n18_13_0" index="0" speed="10.36" length="11.09" shape="-598.40,396.80 -600.65,393.05 -601.60,386.40"/>
    </edge>
    <edge id=":n18_6" function="internal">
        <lane id=":n18_6_0" index="0" speed="6.51" length="9.03" shape="-592.00,386.40 -591.65,388.85 -590.60,390.60 -588.85,391.65 -586.40,392.00"/>
    </edge>
    <edge id=":n18_7" function="internal">
        <lane id=":n18_7_0" index="0" speed="13.89" length="27.20" shape="-595.20,386.40 -595.20,413.60"/>
    </edge>
    <edge id=":n18_8" function="internal">
        <lane id=":n18_8_0" index="0" speed="10.36" length="13.42" shape="-598.40,386.40 -599.35,393.05 -602.20,397.80 -603.20,398.40"/>
    </edge>
    <edge id=":n18_14" function="internal">
        <lane id=":n18_14_0" index="0" speed="10.36" length="11.09" shape="-603.20,398.40 -606.95,400.65 -613.60,401.60"/>
    </edge>
    <edge id=":n18_9" function="internal">
        <lane id=":n18_9_0" index="0" speed="6.51" length="9.03" shape="-613.60,392.00 -611.15,391.65 -609.40,390.60 -608.35,388.85 -608.00,386.40"/>
    </edge>
    <edge id=":n18_10" function="internal">
        <lane id=":n18_10_0" index="0" speed="13.89" length="27.20" shape="-613.60,395.20 -586.40,395.20"/>
    </edge>
    <edge id=":n18_11" function="internal">
        <lane id=":n18_11_0" index="0" speed="10.36" length="13.42" shape="-613.60,398.40 -606.95,399.35 -602.20,402.20 -601.60,403.20"/>
    </edge>
    <edge id=":n18_15" function="internal">
        <lane id=":n18_15_0" index="0" speed="10.36" length="11.09" shape="-601.60,403.20 -599.35,406.95 -598.40,413.60"/>
    </edge>
    <edge id=":n19_0" function="internal">
        <lane id=":n19_0_0" index="0" speed="6.51" length="9.03" shape="-408.00,413.60 -408.35,411.15 -409.40,409.40 -411.15,408.35 -413.60,408.00"/>
    </edge>
    <edge id=":n19_1" function="internal">
        <lane id=":n19_1_0" index="0" speed="13.89" length="27.20" shape="-404.80,413.60 -404.80,386.40"/>
    </edge>
    <edge id=":n19_2" function="internal">