<?xml version="1.0" encoding="UTF-8"?>

<!-- generated on 12/22/20 16:13:58 by Eclipse SUMO netedit Version 1.7.0
<configuration xmlns:xsi="http://www.w3.org/2001/XMLSchema-instance" xsi:noNamespaceSchemaLocation="http://sumo.dlr.de/xsd/netconvertConfiguration.xsd">

    <input>
        <sumo-net-file value="C:\Users\marco\PycharmProjects\crossing\intersection_glorio_gambelli\working\auction\intersection.net.xml"/>
    </input>

    <output>
        <output-file value="C:\Users\marco\PycharmProjects\crossing\intersection_glorio_gambelli\working\auction\intersection.net.xml"/>
    </output>

    <processing>
        <geometry.min-radius.fix.railways value="false"/>
        <geometry.max-grade.fix value="false"/>
        <offset.disable-normalization value="true"/>
        <lefthand value="false"/>
    </processing>

    <junctions>
        <no-turnarounds value="true"/>
        <junctions.corner-detail value="5"/>
        <junctions.limit-turn-speed value="5.5"/>
        <rectangular-lane-cut value="false"/>
    </junctions>

    <pedestrian>
        <walkingareas value="false"/>
    </pedestrian>

    <report>
        <aggregate-warnings value="5"/>
    </report>

</configuration>
-->

<net version="1.6" junctionCornerDetail="5" limitTurnSpeed="5.50" xmlns:xsi="http://www.w3.org/2001/XMLSchema-instance" xsi:noNamespaceSchemaLocation="http://sumo.dlr.de/xsd/net_file.xsd">

    <location netOffset="0.00,0.00" convBoundary="-100.00,-100.00,100.00,100.00" origBoundary="-10000000000.00,-10000000000.00,10000000000.00,10000000000.00" projParameter="!"/>

    <edge id=":n5_0" function="internal">
        <lane id=":n5_0_0" index="0" speed="6.51" length="9.03" shape="-4.80,10.40 -5.15,7.95 -6.20,6.20 -7.95,5.15 -10.40,4.80"/>
    </edge>
    <edge id=":n5_1" function="internal">
        <lane id=":n5_1_0" index="0" speed="13.89" length="20.80" shape="-4.80,10.40 -4.80,-10.40"/>
        <lane id=":n5_1_1" index="1" speed="13.89" length="20.80" shape="-1.60,10.40 -1.60,-10.40"/>
    </edge>
    <edge id=":n5_3" function="internal">
        <lane id=":n5_3_0" index="0" speed="9.26" length="6.96" shape="-1.60,10.40 -0.85,5.15 -0.00,3.73"/>
    </edge>
    <edge id=":n5_16" function="internal">
        <lane id=":n5_16_0" index="0" speed="9.26" length="12.40" shape="-0.00,3.73 1.40,1.40 5.15,-0.85 10.40,-1.60"/>
    </edge>
    <edge id=":n5_4" function="internal">
        <lane id=":n5_4_0" index="0" speed="6.51" length="9.03" shape="10.40,4.80 7.95,5.15 6.20,6.20 5.15,7.95 4.80,10.40"/>
    </edge>
    <edge id=":n5_5" function="internal">
        <lane id=":n5_5_0" index="0" speed="13.89" length="20.80" shape="10.40,4.80 -10.40,4.80"/>
        <lane id=":n5_5_1" index="1" speed="13.89" length="20.80" shape="10.40,1.60 -10.40,1.60"/>
    </edge>
    <edge id=":n5_7" function="internal">
        <lane id=":n5_7_0" index="0" speed="9.26" length="19.35" shape="10.40,1.60 5.15,0.85 1.40,-1.40 -0.85,-5.15 -1.60,-10.40"/>
    </edge>
    <edge id=":n5_8" function="internal">
        <lane id=":n5_8_0" index="0" speed="6.51" length="9.03" shape="4.80,-10.40 5.15,-7.95 6.20,-6.20 7.95,-5.15 10.40,-4.80"/>
    </edge>
    <edge id=":n5_9" function="internal">
        <lane id=":n5_9_0" index="0" speed="13.89" length="20.80" shape="4.80,-10.40 4.80,10.40"/>
        <lane id=":n5_9_1" index="1" speed="13.89" length="20.80" shape="1.60,-10.40 1.60,10.40"/>
    </edge>
    <edge id=":n5_11" function="internal">
        <lane id=":n5_11_0" index="0" speed="9.26" length="6.96" shape="1.60,-10.40 0.85,-5.15 0.00,-3.73"/>
    </edge>
    <edge id=":n5_17" function="internal">
        <lane id=":n5_17_0" index="0" speed="9.26" length="12.40" shape="0.00,-3.73 -1.40,-1.40 -5.15,0.85 -10.40,1.60"/>
    </edge>
    <edge id=":n5_12" function="internal">
        <lane id=":n5_12_0" index="0" speed="6.51" length="9.03" shape="-10.40,-4.80 -7.95,-5.15 -6.20,-6.20 -5.15,-7.95 -4.80,-10.40"/>
    </edge>
    <edge id=":n5_13" function="internal">
        <lane id=":n5_13_0" index="0" speed="13.89" length="20.80" shape="-10.40,-4.80 10.40,-4.80"/>
        <lane id=":n5_13_1" index="1" speed="13.89" length="20.80" shape="-10.40,-1.60 10.40,-1.60"/>
    </edge>
    <edge id=":n5_15" function="internal">
        <lane id=":n5_15_0" index="0" speed="9.26" length="19.35" shape="-10.40,-1.60 -5.15,-0.85 -1.40,1.40 0.85,5.15 1.60,10.40"/>
    </edge>

    <edge id="e01_05" from="n1" to="n5" priority="-1">
        <lane id="e01_05_0" index="0" speed="13.89" length="89.60" shape="-100.00,-4.80 -10.40,-4.80"/>
        <lane id="e01_05_1" index="1" speed="13.89" length="89.60" shape="-100.00,-1.60 -10.40,-1.60"/>
    </edge>
    <edge id="e02_05" from="n2" to="n5" priority="-1">
        <lane id="e02_05_0" index="0" speed="13.89" length="89.60" shape="-4.80,100.00 -4.80,10.40"/>
        <lane id="e02_05_1" index="1" speed="13.89" length="89.60" shape="-1.60,100.00 -1.60,10.40"/>
    </edge>
    <edge id="e03_05" from="n3" to="n5" priority="-1">
        <lane id="e03_05_0" index="0" speed="13.89" length="89.60" shape="100.00,4.80 10.40,4.80"/>
        <lane id="e03_05_1" index="1" speed="13.89" length="89.60" shape="100.00,1.60 10.40,1.60"/>
    </edge>
    <edge id="e04_05" from="n4" to="n5" priority="-1">
        <lane id="e04_05_0" index="0" speed="13.89" length="89.60" shape="4.80,-100.00 4.80,-10.40"/>
        <lane id="e04_05_1" index="1" speed="13.89" length="89.60" shape="1.60,-100.00 1.60,-10.40"/>
    </edge>
    <edge id="e05_01" from="n5" to="n1" priority="-1">
        <lane id="e05_01_0" index="0" speed="13.89" length="89.60" shape="-10.40,4.80 -100.00,4.80"/>
        <lane id="e05_01_1" index="1" speed="13.89" length="89.60" shape="-10.40,1.60 -100.00,1.60"/>
    </edge>
    <edge id="e05_02" from="n5" to="n2" priority="-1">
        <lane id="e05_02_0" index="0" speed="13.89" length="89.60" shape="4.80,10.40 4.80,100.00"/>
        <lane id="e05_02_1" index="1" speed="13.89" length="89.60" shape="1.60,10.40 1.60,100.00"/>
    </edge>
    <edge id="e05_03" from="n5" to="n3" priority="-1">
        <lane id="e05_03_0" index="0" speed="13.89" length="89.60" shape="10.40,-4.80 100.00,-4.80"/>
        <lane id="e05_03_1" index="1" speed="13.89" length="89.60" shape="10.40,-1.60 100.00,-1.60"/>
    </edge>
    <edge id="e05_04" from="n5" to="n4" priority="-1">
        <lane id="e05_04_0" index="0" speed="13.89" length="89.60" shape="-4.80,-10.40 -4.80,-100.00"/>
        <lane id="e05_04_1" index="1" speed="13.89" length="89.60" shape="-1.60,-10.40 -1.60,-100.00"/>
    </edge>

    <junction id="n1" type="dead_end" x="-100.00" y="0.00" incLanes="e05_01_0 e05_01_1" intLanes="" shape="-100.00,0.00 -100.00,6.40 -100.00,0.00"/>
    <junction id="n2" type="dead_end" x="0.00" y="100.00" incLanes="e05_02_0 e05_02_1" intLanes="" shape="0.00,100.00 6.40,100.00 0.00,100.00"/>
    <junction id="n3" type="dead_end" x="100.00" y="0.00" incLanes="e05_03_0 e05_03_1" intLanes="" shape="100.00,0.00 100.00,-6.40 100.00,0.00"/>
    <junction id="n4" type="dead_end" x="0.00" y="-100.00" incLanes="e05_04_0 e05_04_1" intLanes="" shape="0.00,-100.00 -6.40,-100.00 0.00,-100.00"/>
    <junction id="n5" type="priority" x="0.00" y="0.00" incLanes="e02_05_0 e02_05_1 e03_05_0 e03_05_1 e04_05_0 e04_05_1 e01_05_0 e01_05_1" intLanes=":n5_0_0 :n5_1_0 :n5_1_1 :n5_16_0 :n5_4_0 :n5_5_0 :n5_5_1 :n5_7_0 :n5_8_0 :n5_9_0 :n5_9_1 :n5_17_0 :n5_12_0 :n5_13_0 :n5_13_1 :n5_15_0" shape="-6.40,10.40 6.40,10.40 6.84,8.18 7.40,7.40 8.18,6.84 9.18,6.51 10.40,6.40 10.40,-6.40 8.18,-6.84 7.40,-7.40 6.84,-8.18 6.51,-9.18 6.40,-10.40 -6.40,-10.40 -6.84,-8.18 -7.40,-7.40 -8.18,-6.84 -9.18,-6.51 -10.40,-6.40 -10.40,6.40 -8.18,6.84 -7.40,7.40 -6.84,8.18 -6.51,9.18">
        <request index="0"  response="0000000000000000" foes="0000000001100000" cont="0"/>
        <request index="1"  response="0000000000000000" foes="1111100011100000" cont="0"/>
        <request index="2"  response="0000000000000000" foes="1111100011100000" cont="0"/>
        <request index="3"  response="0000011000000000" foes="1110011011100000" cont="1"/>
        <request index="4"  response="0000011000000000" foes="0000011000000000" cont="0"/>
        <request index="5"  response="0000111000001111" foes="1000111000001111" cont="0"/>
        <request index="6"  response="0000111000001111" foes="1000111000001111" cont="0"/>
        <request index="7"  response="0110111000001110" foes="0110111000001110" cont="0"/>
        <request index="8"  response="0000000000000000" foes="0110000000000000" cont="0"/>
        <request index="9"  response="0000000000000000" foes="1110000011111000" cont="0"/>
        <request index="10" response="0000000000000000" foes="1110000011111000" cont="0"/>
        <request index="11" response="0000000000000110" foes="1110000011100110" cont="1"/>
        <request index="12" response="0000000000000110" foes="0000000000000110" cont="0"/>
        <request index="13" response="0000111100001110" foes="0000111110001110" cont="0"/>
        <request index="14" response="0000111100001110" foes="0000111110001110" cont="0"/>
        <request index="15" response="0000111001101110" foes="0000111001101110" cont="0"/>
    </junction>

    <junction id=":n5_16_0" type="internal" x="-0.00" y="3.73" incLanes=":n5_3_0 e04_05_0 e04_05_1" intLanes=":n5_5_0 :n5_5_1 :n5_7_0 :n5_8_0 :n5_9_0 :n5_9_1 :n5_13_0 :n5_13_1 :n5_15_0"/>
    <junction id=":n5_17_0" type="internal" x="0.00" y="-3.73" incLanes=":n5_11_0 e02_05_0 e02_05_1" intLanes=":n5_0_0 :n5_1_0 :n5_1_1 :n5_5_0 :n5_5_1 :n5_7_0 :n5_13_0 :n5_13_1 :n5_15_0"/>

    <connection from="e01_05" to="e05_04" fromLane="0" toLane="0" via=":n5_12_0" dir="r" state="m"/>
    <connection from="e01_05" to="e05_03" fromLane="0" toLane="0" via=":n5_13_0" dir="s" state="m"/>
    <connection from="e01_05" to="e05_03" fromLane="1" toLane="1" via=":n5_13_1" dir="s" state="m"/>
    <connection from="e01_05" to="e05_02" fromLane="1" toLane="1" via=":n5_15_0" dir="l" state="m"/>
    <connection from="e02_05" to="e05_01" fromLane="0" toLane="0" via=":n5_0_0" dir="r" state="M"/>
    <connection from="e02_05" to="e05_04" fromLane="0" toLane="0" via=":n5_1_0" dir="s" state="M"/>
    <connection from="e02_05" to="e05_04" fromLane="1" toLane="1" via=":n5_1_1" dir="s" state="M"/>
    <connection from="e02_05" to="e05_03" fromLane="1" toLane="1" via=":n5_3_0" dir="l" state="m"/>
    <connection from="e03_05" to="e05_02" fromLane="0" toLane="0" via=":n5_4_0" dir="r" state="m"/>
    <connection from="e03_05" to="e05_01" fromLane="0" toLane="0" via=":n5_5_0" dir="s" state="m"/>
    <connection from="e03_05" to="e05_01" fromLane="1" toLane="1" via=":n5_5_1" dir="s" state="m"/>
    <connection from="e03_05" to="e05_04" fromLane="1" toLane="1" via=":n5_7_0" dir="l" state="m"/>
    <connection from="e04_05" to="e05_03" fromLane="0" toLane="0" via=":n5_8_0" dir="r" state="M"/>
    <connection from="e04_05" to="e05_02" fromLane="0" toLane="0" via=":n5_9_0" dir="s" state="M"/>
    <connection from="e04_05" to="e05_02" fromLane="1" toLane="1" via=":n5_9_1" dir="s" state="M"/>
    <connection from="e04_05" to="e05_01" fromLane="1" toLane="1" via=":n5_11_0" dir="l" state="m"/>

    <connection from=":n5_0" to="e05_01" fromLane="0" toLane="0" dir="r" state="M"/>
    <connection from=":n5_1" to="e05_04" fromLane="0" toLane="0" dir="s" state="M"/>
    <connection from=":n5_1" to="e05_04" fromLane="1" toLane="1" dir="s" state="M"/>
    <connection from=":n5_3" to="e05_03" fromLane="0" toLane="1" via=":n5_16_0" dir="l" state="m"/>
    <connection from=":n5_16" to="e05_03" fromLane="0" toLane="1" dir="l" state="M"/>
    <connection from=":n5_4" to="e05_02" fromLane="0" toLane="0" dir="r" state="M"/>
    <connection from=":n5_5" to="e05_01" fromLane="0" toLane="0" dir="s" state="M"/>
    <connection from=":n5_5" to="e05_01" fromLane="1" toLane="1" dir="s" state="M"/>
    <connection from=":n5_7" to="e05_04" fromLane="0" toLane="1" dir="l" state="M"/>
    <connection from=":n5_8" to="e05_03" fromLane="0" toLane="0" dir="r" state="M"/>
    <connection from=":n5_9" to="e05_02" fromLane="0" toLane="0" dir="s" state="M"/>
    <connection from=":n5_9" to="e05_02" fromLane="1" toLane="1" dir="s" state="M"/>
    <connection from=":n5_11" to="e05_01" fromLane="0" toLane="1" via=":n5_17_0" dir="l" state="m"/>
    <connection from=":n5_17" to="e05_01" fromLane="0" toLane="1" dir="l" state="M"/>
    <connection from=":n5_12" to="e05_04" fromLane="0" toLane="0" dir="r" state="M"/>
    <connection from=":n5_13" to="e05_03" fromLane="0" toLane="0" dir="s" state="M"/>
    <connection from=":n5_13" to="e05_03" fromLane="1" toLane="1" dir="s" state="M"/>
    <connection from=":n5_15" to="e05_02" fromLane="0" toLane="1" dir="l" state="M"/>

</net>
