<configuration>
    <input>
        <net-file value="intersection.net.xml"/>
        <gui-settings-file value="gui-settings.xml"/>
    </input>

    <time>
        <begin value="0"/>
        <end value="1000"/>
        
    </time>
</configuration>
