<?xml version="1.0" encoding="UTF-8"?>

<!-- generated on 06/06/20 14:04:03 by Eclipse SUMO netedit Version 1.6.0
<configuration xmlns:xsi="http://www.w3.org/2001/XMLSchema-instance" xsi:noNamespaceSchemaLocation="http://sumo.dlr.de/xsd/netconvertConfiguration.xsd">

    <input>
        <sumo-net-file value="C:\Users\andca\Desktop\SUMO\autonomousDrivingSimulator\autonomousDrivingSimulator.net.xml"/>
    </input>

    <output>
        <output-file value="C:\Users\andca\Desktop\SUMO\autonomousDrivingSimulator\autonomousDrivingSimulator.net.xml"/>
    </output>

    <processing>
        <geometry.min-radius.fix.railways value="false"/>
        <geometry.max-grade.fix value="false"/>
        <offset.disable-normalization value="true"/>
        <lefthand value="false"/>
    </processing>

    <junctions>
        <no-turnarounds value="true"/>
        <junctions.corner-detail value="5"/>
        <junctions.limit-turn-speed value="5.5"/>
        <rectangular-lane-cut value="false"/>
    </junctions>

    <pedestrian>
        <walkingareas value="false"/>
    </pedestrian>

    <report>
        <aggregate-warnings value="5"/>
    </report>

</configuration>
-->

<net version="1.6" junctionCornerDetail="5" limitTurnSpeed="5.50" xmlns:xsi="http://www.w3.org/2001/XMLSchema-instance" xsi:noNamespaceSchemaLocation="http://sumo.dlr.de/xsd/net_file.xsd">

    <location netOffset="0.00,0.00" convBoundary="-1000.00,200.00,-200.00,1000.00" origBoundary="-10000000000.00,-10000000000.00,10000000000.00,10000000000.00" projParameter="!"/>

    <edge id=":n1_0" function="internal">
        <lane id=":n1_0_0" index="0" speed="8.96" length="18.06" shape="-993.60,1004.80 -998.50,1004.10 -1002.00,1002.00 -1004.10,998.50 -1004.80,993.60"/>
    </edge>
    <edge id=":n1_1" function="internal">
        <lane id=":n1_1_0" index="0" speed="7.66" length="12.90" shape="-993.60,1001.60 -997.10,1001.10 -999.60,999.60 -1001.10,997.10 -1001.60,993.60"/>
    </edge>
    <edge id=":n1_2" function="internal">
        <lane id=":n1_2_0" index="0" speed="3.90" length="2.58" shape="-995.20,993.60 -995.10,994.30 -994.80,994.80 -994.30,995.10 -993.60,995.20"/>
    </edge>
    <edge id=":n1_3" function="internal">
        <lane id=":n1_3_0" index="0" speed="6.08" length="7.74" shape="-998.40,993.60 -998.10,995.70 -997.20,997.20 -995.70,998.10 -993.60,998.40"/>
    </edge>
    <edge id=":n10_0" function="internal">
        <lane id=":n10_0_0" index="0" speed="6.51" length="9.03" shape="-204.80,810.40 -205.15,807.95 -206.20,806.20 -207.95,805.15 -210.40,804.80"/>
    </edge>
    <edge id=":n10_1" function="internal">
        <lane id=":n10_1_0" index="0" speed="13.89" length="20.80" shape="-204.80,810.40 -204.80,789.60"/>
        <lane id=":n10_1_1" index="1" speed="13.89" length="20.80" shape="-201.60,810.40 -201.60,789.60"/>
    </edge>
    <edge id=":n10_3" function="internal">
        <lane id=":n10_3_0" index="0" speed="13.89" length="20.80" shape="-195.20,789.60 -195.20,810.40"/>
        <lane id=":n10_3_1" index="1" speed="13.89" length="20.80" shape="-198.40,789.60 -198.40,810.40"/>
    </edge>
    <edge id=":n10_5" function="internal">
        <lane id=":n10_5_0" index="0" speed="9.26" length="6.96" shape="-198.40,789.60 -199.15,794.85 -200.00,796.27"/>
    </edge>
    <edge id=":n10_8" function="internal">
        <lane id=":n10_8_0" index="0" speed="9.26" length="12.40" shape="-200.00,796.27 -201.40,798.60 -205.15,800.85 -210.40,801.60"/>
    </edge>
    <edge id=":n10_6" function="internal">
        <lane id=":n10_6_0" index="0" speed="6.51" length="9.03" shape="-210.40,795.20 -207.95,794.85 -206.20,793.80 -205.15,792.05 -204.80,789.60"/>
    </edge>
    <edge id=":n10_7" function="internal">
        <lane id=":n10_7_0" index="0" speed="9.26" length="19.35" shape="-210.40,798.40 -205.15,799.15 -201.40,801.40 -199.15,805.15 -198.40,810.40"/>
    </edge>
    <edge id=":n11_0" function="internal">
        <lane id=":n11_0_0" index="0" speed="13.89" length="20.80" shape="-1004.80,610.40 -1004.80,589.60"/>
        <lane id=":n11_0_1" index="1" speed="13.89" length="20.80" shape="-1001.60,610.40 -1001.60,589.60"/>
    </edge>
    <edge id=":n11_2" function="internal">
        <lane id=":n11_2_0" index="0" speed="9.26" length="6.96" shape="-1001.60,610.40 -1000.85,605.15 -1000.00,603.73"/>
    </edge>
    <edge id=":n11_8" function="internal">
        <lane id=":n11_8_0" index="0" speed="9.26" length="12.40" shape="-1000.00,603.73 -998.60,601.40 -994.85,599.15 -989.60,598.40"/>
    </edge>
    <edge id=":n11_3" function="internal">
        <lane id=":n11_3_0" index="0" speed="6.51" length="9.03" shape="-989.60,604.80 -992.05,605.15 -993.80,606.20 -994.85,607.95 -995.20,610.40"/>
    </edge>
    <edge id=":n11_4" function="internal">
        <lane id=":n11_4_0" index="0" speed="9.26" length="19.35" shape="-989.60,601.60 -994.85,600.85 -998.60,598.60 -1000.85,594.85 -1001.60,589.60"/>
    </edge>
    <edge id=":n11_5" function="internal">
        <lane id=":n11_5_0" index="0" speed="6.51" length="9.03" shape="-995.20,589.60 -994.85,592.05 -993.80,593.80 -992.05,594.85 -989.60,595.20"/>
    </edge>
    <edge id=":n11_6" function="internal">
        <lane id=":n11_6_0" index="0" speed="13.89" length="20.80" shape="-995.20,589.60 -995.20,610.40"/>
        <lane id=":n11_6_1" index="1" speed="13.89" length="20.80" shape="-998.40,589.60 -998.40,610.40"/>
    </edge>
    <edge id=":n12_0" function="internal">
        <lane id=":n12_0_0" index="0" speed="6.51" length="9.03" shape="-804.80,610.40 -805.15,607.95 -806.20,606.20 -807.95,605.15 -810.40,604.80"/>
    </edge>
    <edge id=":n12_1" function="internal">
        <lane id=":n12_1_0" index="0" speed="13.89" length="20.80" shape="-804.80,610.40 -804.80,589.60"/>
        <lane id=":n12_1_1" index="1" speed="13.89" length="20.80" shape="-801.60,610.40 -801.60,589.60"/>
    </edge>
    <edge id=":n12_3" function="internal">
        <lane id=":n12_3_0" index="0" speed="9.26" length="6.96" shape="-801.60,610.40 -800.85,605.15 -800.00,603.73"/>
    </edge>
    <edge id=":n12_16" function="internal">
        <lane id=":n12_16_0" index="0" speed="9.26" length="12.40" shape="-800.00,603.73 -798.60,601.40 -794.85,599.15 -789.60,598.40"/>
    </edge>
    <edge id=":n12_4" function="internal">
        <lane id=":n12_4_0" index="0" speed="6.51" length="9.03" shape="-789.60,604.80 -792.05,605.15 -793.80,606.20 -794.85,607.95 -795.20,610.40"/>
    </edge>
    <edge id=":n12_5" function="internal">
        <lane id=":n12_5_0" index="0" speed="13.89" length="20.80" shape="-789.60,604.80 -810.40,604.80"/>
        <lane id=":n12_5_1" index="1" speed="13.89" length="20.80" shape="-789.60,601.60 -810.40,601.60"/>
    </edge>
    <edge id=":n12_7" function="internal">
        <lane id=":n12_7_0" index="0" speed="9.26" length="19.35" shape="-789.60,601.60 -794.85,600.85 -798.60,598.60 -800.85,594.85 -801.60,589.60"/>
    </edge>
    <edge id=":n12_8" function="internal">
        <lane id=":n12_8_0" index="0" speed="6.51" length="9.03" shape="-795.20,589.60 -794.85,592.05 -793.80,593.80 -792.05,594.85 -789.60,595.20"/>
    </edge>
    <edge id=":n12_9" function="internal">
        <lane id=":n12_9_0" index="0" speed="13.89" length="20.80" shape="-795.20,589.60 -795.20,610.40"/>
        <lane id=":n12_9_1" index="1" speed="13.89" length="20.80" shape="-798.40,589.60 -798.40,610.40"/>
    </edge>
    <edge id=":n12_11" function="internal">
        <lane id=":n12_11_0" index="0" speed="9.26" length="6.96" shape="-798.40,589.60 -799.15,594.85 -800.00,596.27"/>
    </edge>
    <edge id=":n12_17" function="internal">
        <lane id=":n12_17_0" index="0" speed="9.26" length="12.40" shape="-800.00,596.27 -801.40,598.60 -805.15,600.85 -810.40,601.60"/>
    </edge>
    <edge id=":n12_12" function="internal">
        <lane id=":n12_12_0" index="0" speed="6.51" length="9.03" shape="-810.40,595.20 -807.95,594.85 -806.20,593.80 -805.15,592.05 -804.80,589.60"/>
    </edge>
    <edge id=":n12_13" function="internal">
        <lane id=":n12_13_0" index="0" speed="13.89" length="20.80" shape="-810.40,595.20 -789.60,595.20"/>
        <lane id=":n12_13_1" index="1" speed="13.89" length="20.80" shape="-810.40,598.40 -789.60,598.40"/>
    </edge>
    <edge id=":n12_15" function="internal">
        <lane id=":n12_15_0" index="0" speed="9.26" length="19.35" shape="-810.40,598.40 -805.15,599.15 -801.40,601.40 -799.15,605.15 -798.40,610.40"/>
    </edge>
    <edge id=":n13_0" function="internal">
        <lane id=":n13_0_0" index="0" speed="6.51" length="9.03" shape="-604.80,610.40 -605.15,607.95 -606.20,606.20 -607.95,605.15 -610.40,604.80"/>
    </edge>
    <edge id=":n13_1" function="internal">
        <lane id=":n13_1_0" index="0" speed="13.89" length="20.80" shape="-604.80,610.40 -604.80,589.60"/>
        <lane id=":n13_1_1" index="1" speed="13.89" length="20.80" shape="-601.60,610.40 -601.60,589.60"/>
    </edge>
    <edge id=":n13_3" function="internal">
        <lane id=":n13_3_0" index="0" speed="9.26" length="6.96" shape="-601.60,610.40 -600.85,605.15 -600.00,603.73"/>
    </edge>
    <edge id=":n13_16" function="internal">
        <lane id=":n13_16_0" index="0" speed="9.26" length="12.40" shape="-600.00,603.73 -598.60,601.40 -594.85,599.15 -589.60,598.40"/>
    </edge>
    <edge id=":n13_4" function="internal">
        <lane id=":n13_4_0" index="0" speed="6.51" length="9.03" shape="-589.60,604.80 -592.05,605.15 -593.80,606.20 -594.85,607.95 -595.20,610.40"/>
    </edge>
    <edge id=":n13_5" function="internal">
        <lane id=":n13_5_0" index="0" speed="13.89" length="20.80" shape="-589.60,604.80 -610.40,604.80"/>
        <lane id=":n13_5_1" index="1" speed="13.89" length="20.80" shape="-589.60,601.60 -610.40,601.60"/>
    </edge>
    <edge id=":n13_7" function="internal">
        <lane id=":n13_7_0" index="0" speed="9.26" length="19.35" shape="-589.60,601.60 -594.85,600.85 -598.60,598.60 -600.85,594.85 -601.60,589.60"/>
    </edge>
    <edge id=":n13_8" function="internal">
        <lane id=":n13_8_0" index="0" speed="6.51" length="9.03" shape="-595.20,589.60 -594.85,592.05 -593.80,593.80 -592.05,594.85 -589.60,595.20"/>
    </edge>
    <edge id=":n13_9" function="internal">
        <lane id=":n13_9_0" index="0" speed="13.89" length="20.80" shape="-595.20,589.60 -595.20,610.40"/>
        <lane id=":n13_9_1" index="1" speed="13.89" length="20.80" shape="-598.40,589.60 -598.40,610.40"/>
    </edge>
    <edge id=":n13_11" function="internal">
        <lane id=":n13_11_0" index="0" speed="9.26" length="6.96" shape="-598.40,589.60 -599.15,594.85 -600.00,596.27"/>
    </edge>
    <edge id=":n13_17" function="internal">
        <lane id=":n13_17_0" index="0" speed="9.26" length="12.40" shape="-600.00,596.27 -601.40,598.60 -605.15,600.85 -610.40,601.60"/>
    </edge>
    <edge id=":n13_12" function="internal">
        <lane id=":n13_12_0" index="0" speed="6.51" length="9.03" shape="-610.40,595.20 -607.95,594.85 -606.20,593.80 -605.15,592.05 -604.80,589.60"/>
    </edge>
    <edge id=":n13_13" function="internal">
        <lane id=":n13_13_0" index="0" speed="13.89" length="20.80" shape="-610.40,595.20 -589.60,595.20"/>
        <lane id=":n13_13_1" index="1" speed="13.89" length="20.80" shape="-610.40,598.40 -589.60,598.40"/>
    </edge>
    <edge id=":n13_15" function="internal">
        <lane id=":n13_15_0" index="0" speed="9.26" length="19.35" shape="-610.40,598.40 -605.15,599.15 -601.40,601.40 -599.15,605.15 -598.40,610.40"/>
    </edge>
    <edge id=":n14_0" function="internal">
        <lane id=":n14_0_0" index="0" speed="6.51" length="9.03" shape="-404.80,610.40 -405.15,607.95 -406.20,606.20 -407.95,605.15 -410.40,604.80"/>
    </edge>
    <edge id=":n14_1" function="internal">
        <lane id=":n14_1_0" index="0" speed="13.89" length="20.80" shape="-404.80,610.40 -404.80,589.60"/>
        <lane id=":n14_1_1" index="1" speed="13.89" length="20.80" shape="-401.60,610.40 -401.60,589.60"/>
    </edge>
    <edge id=":n14_3" function="internal">
        <lane id=":n14_3_0" index="0" speed="9.26" length="6.96" shape="-401.60,610.40 -400.85,605.15 -400.00,603.73"/>
    </edge>
    <edge id=":n14_16" function="internal">
        <lane id=":n14_16_0" index="0" speed="9.26" length="12.40" shape="-400.00,603.73 -398.60,601.40 -394.85,599.15 -389.60,598.40"/>
    </edge>
    <edge id=":n14_4" function="internal">
        <lane id=":n14_4_0" index="0" speed="6.51" length="9.03" shape="-389.60,604.80 -392.05,605.15 -393.80,606.20 -394.85,607.95 -395.20,610.40"/>
    </edge>
    <edge id=":n14_5" function="internal">
        <lane id=":n14_5_0" index="0" speed="13.89" length="20.80" shape="-389.60,604.80 -410.40,604.80"/>
        <lane id=":n14_5_1" index="1" speed="13.89" length="20.80" shape="-389.60,601.60 -410.40,601.60"/>
    </edge>
    <edge id=":n14_7" function="internal">
        <lane id=":n14_7_0" index="0" speed="9.26" length="19.35" shape="-389.60,601.60 -394.85,600.85 -398.60,598.60 -400.85,594.85 -401.60,589.60"/>
    </edge>
    <edge id=":n14_8" function="internal">
        <lane id=":n14_8_0" index="0" speed="6.51" length="9.03" shape="-395.20,589.60 -394.85,592.05 -393.80,593.80 -392.05,594.85 -389.60,595.20"/>
    </edge>
    <edge id=":n14_9" function="internal">
        <lane id=":n14_9_0" index="0" speed="13.89" length="20.80" shape="-395.20,589.60 -395.20,610.40"/>
        <lane id=":n14_9_1" index="1" speed="13.89" length="20.80" shape="-398.40,589.60 -398.40,610.40"/>
    </edge>
    <edge id=":n14_11" function="internal">
        <lane id=":n14_11_0" index="0" speed="9.26" length="6.96" shape="-398.40,589.60 -399.15,594.85 -400.00,596.27"/>
    </edge>
    <edge id=":n14_17" function="internal">
        <lane id=":n14_17_0" index="0" speed="9.26" length="12.40" shape="-400.00,596.27 -401.40,598.60 -405.15,600.85 -410.40,601.60"/>
    </edge>
    <edge id=":n14_12" function="internal">
        <lane id=":n14_12_0" index="0" speed="6.51" length="9.03" shape="-410.40,595.20 -407.95,594.85 -406.20,593.80 -405.15,592.05 -404.80,589.60"/>
    </edge>
    <edge id=":n14_13" function="internal">
        <lane id=":n14_13_0" index="0" speed="13.89" length="20.80" shape="-410.40,595.20 -389.60,595.20"/>
        <lane id=":n14_13_1" index="1" speed="13.89" length="20.80" shape="-410.40,598.40 -389.60,598.40"/>
    </edge>
    <edge id=":n14_15" function="internal">
        <lane id=":n14_15_0" index="0" speed="9.26" length="19.35" shape="-410.40,598.40 -405.15,599.15 -401.40,601.40 -399.15,605.15 -398.40,610.40"/>
    </edge>
    <edge id=":n15_0" function="internal">
        <lane id=":n15_0_0" index="0" speed="6.51" length="9.03" shape="-204.80,610.40 -205.15,607.95 -206.20,606.20 -207.95,605.15 -210.40,604.80"/>
    </edge>
    <edge id=":n15_1" function="internal">
        <lane id=":n15_1_0" index="0" speed="13.89" length="20.80" shape="-204.80,610.40 -204.80,589.60"/>
        <lane id=":n15_1_1" index="1" speed="13.89" length="20.80" shape="-201.60,610.40 -201.60,589.60"/>
    </edge>
    <edge id=":n15_3" function="internal">
        <lane id=":n15_3_0" index="0" speed="13.89" length="20.80" shape="-195.20,589.60 -195.20,610.40"/>
        <lane id=":n15_3_1" index="1" speed="13.89" length="20.80" shape="-198.40,589.60 -198.40,610.40"/>
    </edge>
    <edge id=":n15_5" function="internal">
        <lane id=":n15_5_0" index="0" speed="9.26" length="6.96" shape="-198.40,589.60 -199.15,594.85 -200.00,596.27"/>
    </edge>
    <edge id=":n15_8" function="internal">
        <lane id=":n15_8_0" index="0" speed="9.26" length="12.40" shape="-200.00,596.27 -201.40,598.60 -205.15,600.85 -210.40,601.60"/>
    </edge>
    <edge id=":n15_6" function="internal">
        <lane id=":n15_6_0" index="0" speed="6.51" length="9.03" shape="-210.40,595.20 -207.95,594.85 -206.20,593.80 -205.15,592.05 -204.80,589.60"/>
    </edge>
    <edge id=":n15_7" function="internal">
        <lane id=":n15_7_0" index="0" speed="9.26" length="19.35" shape="-210.40,598.40 -205.15,599.15 -201.40,601.40 -199.15,605.15 -198.40,610.40"/>
    </edge>
    <edge id=":n16_0" function="internal">
        <lane id=":n16_0_0" index="0" speed="13.89" length="20.80" shape="-1004.80,410.40 -1004.80,389.60"/>
        <lane id=":n16_0_1" index="1" speed="13.89" length="20.80" shape="-1001.60,410.40 -1001.60,389.60"/>
    </edge>
    <edge id=":n16_2" function="internal">
        <lane id=":n16_2_0" index="0" speed="9.26" length="6.96" shape="-1001.60,410.40 -1000.85,405.15 -1000.00,403.73"/>
    </edge>
    <edge id=":n16_8" function="internal">
        <lane id=":n16_8_0" index="0" speed="9.26" length="12.40" shape="-1000.00,403.73 -998.60,401.40 -994.85,399.15 -989.60,398.40"/>
    </edge>
    <edge id=":n16_3" function="internal">
        <lane id=":n16_3_0" index="0" speed="6.51" length="9.03" shape="-989.60,404.80 -992.05,405.15 -993.80,406.20 -994.85,407.95 -995.20,410.40"/>
    </edge>
    <edge id=":n16_4" function="internal">
        <lane id=":n16_4_0" index="0" speed="9.26" length="19.35" shape="-989.60,401.60 -994.85,400.85 -998.60,398.60 -1000.85,394.85 -1001.60,389.60"/>
    </edge>
    <edge id=":n16_5" function="internal">
        <lane id=":n16_5_0" index="0" speed="6.51" length="9.03" shape="-995.20,389.60 -994.85,392.05 -993.80,393.80 -992.05,394.85 -989.60,395.20"/>
    </edge>
    <edge id=":n16_6" function="internal">
        <lane id=":n16_6_0" index="0" speed="13.89" length="20.80" shape="-995.20,389.60 -995.20,410.40"/>
        <lane id=":n16_6_1" index="1" speed="13.89" length="20.80" shape="-998.40,389.60 -998.40,410.40"/>
    </edge>
    <edge id=":n17_0" function="internal">
        <lane id=":n17_0_0" index="0" speed="6.51" length="9.03" shape="-804.80,410.40 -805.15,407.95 -806.20,406.20 -807.95,405.15 -810.40,404.80"/>
    </edge>
    <edge id=":n17_1" function="internal">
        <lane id=":n17_1_0" index="0" speed="13.89" length="20.80" shape="-804.80,410.40 -804.80,389.60"/>
        <lane id=":n17_1_1" index="1" speed="13.89" length="20.80" shape="-801.60,410.40 -801.60,389.60"/>
    </edge>
    <edge id=":n17_3" function="internal">
        <lane id=":n17_3_0" index="0" speed="9.26" length="6.96" shape="-801.60,410.40 -800.85,405.15 -800.00,403.73"/>
    </edge>
    <edge id=":n17_16" function="internal">
        <lane id=":n17_16_0" index="0" speed="9.26" length="12.40" shape="-800.00,403.73 -798.60,401.40 -794.85,399.15 -789.60,398.40"/>
    </edge>
    <edge id=":n17_4" function="internal">
        <lane id=":n17_4_0" index="0" speed="6.51" length="9.03" shape="-789.60,404.80 -792.05,405.15 -793.80,406.20 -794.85,407.95 -795.20,410.40"/>
    </edge>
    <edge id=":n17_5" function="internal">
        <lane id=":n17_5_0" index="0" speed="13.89" length="20.80" shape="-789.60,404.80 -810.40,404.80"/>
        <lane id=":n17_5_1" index="1" speed="13.89" length="20.80" shape="-789.60,401.60 -810.40,401.60"/>
    </edge>
    <edge id=":n17_7" function="internal">
        <lane id=":n17_7_0" index="0" speed="9.26" length="19.35" shape="-789.60,401.60 -794.85,400.85 -798.60,398.60 -800.85,394.85 -801.60,389.60"/>
    </edge>
    <edge id=":n17_8" function="internal">
        <lane id=":n17_8_0" index="0" speed="6.51" length="9.03" shape="-795.20,389.60 -794.85,392.05 -793.80,393.80 -792.05,394.85 -789.60,395.20"/>
    </edge>
    <edge id=":n17_9" function="internal">
        <lane id=":n17_9_0" index="0" speed="13.89" length="20.80" shape="-795.20,389.60 -795.20,410.40"/>
        <lane id=":n17_9_1" index="1" speed="13.89" length="20.80" shape="-798.40,389.60 -798.40,410.40"/>
    </edge>
    <edge id=":n17_11" function="internal">
        <lane id=":n17_11_0" index="0" speed="9.26" length="6.96" shape="-798.40,389.60 -799.15,394.85 -800.00,396.27"/>
    </edge>
    <edge id=":n17_17" function="internal">
        <lane id=":n17_17_0" index="0" speed="9.26" length="12.40" shape="-800.00,396.27 -801.40,398.60 -805.15,400.85 -810.40,401.60"/>
    </edge>
    <edge id=":n17_12" function="internal">
        <lane id=":n17_12_0" index="0" speed="6.51" length="9.03" shape="-810.40,395.20 -807.95,394.85 -806.20,393.80 -805.15,392.05 -804.80,389.60"/>
    </edge>
    <edge id=":n17_13" function="internal">
        <lane id=":n17_13_0" index="0" speed="13.89" length="20.80" shape="-810.40,395.20 -789.60,395.20"/>
        <lane id=":n17_13_1" index="1" speed="13.89" length="20.80" shape="-810.40,398.40 -789.60,398.40"/>
    </edge>
    <edge id=":n17_15" function="internal">
        <lane id=":n17_15_0" index="0" speed="9.26" length="19.35" shape="-810.40,398.40 -805.15,399.15 -801.40,401.40 -799.15,405.15 -798.40,410.40"/>
    </edge>
    <edge id=":n18_0" function="internal">
        <lane id=":n18_0_0" index="0" speed="6.51" length="9.03" shape="-604.80,410.40 -605.15,407.95 -606.20,406.20 -607.95,405.15 -610.40,404.80"/>
    </edge>
    <edge id=":n18_1" function="internal">
        <lane id=":n18_1_0" index="0" speed="13.89" length="20.80" shape="-604.80,410.40 -604.80,389.60"/>
        <lane id=":n18_1_1" index="1" speed="13.89" length="20.80" shape="-601.60,410.40 -601.60,389.60"/>
    </edge>
    <edge id=":n18_3" function="internal">
        <lane id=":n18_3_0" index="0" speed="9.26" length="6.96" shape="-601.60,410.40 -600.85,405.15 -600.00,403.73"/>
    </edge>
    <edge id=":n18_16" function="internal">
        <lane id=":n18_16_0" index="0" speed="9.26" length="12.40" shape="-600.00,403.73 -598.60,401.40 -594.85,399.15 -589.60,398.40"/>
    </edge>
    <edge id=":n18_4" function="internal">
        <lane id=":n18_4_0" index="0" speed="6.51" length="9.03" shape="-589.60,404.80 -592.05,405.15 -593.80,406.20 -594.85,407.95 -595.20,410.40"/>
    </edge>
    <edge id=":n18_5" function="internal">
        <lane id=":n18_5_0" index="0" speed="13.89" length="20.80" shape="-589.60,404.80 -610.40,404.80"/>
        <lane id=":n18_5_1" index="1" speed="13.89" length="20.80" shape="-589.60,401.60 -610.40,401.60"/>
    </edge>
    <edge id=":n18_7" function="internal">
        <lane id=":n18_7_0" index="0" speed="9.26" length="19.35" shape="-589.60,401.60 -594.85,400.85 -598.60,398.60 -600.85,394.85 -601.60,389.60"/>
    </edge>
    <edge id=":n18_8" function="internal">
        <lane id=":n18_8_0" index="0" speed="6.51" length="9.03" shape="-595.20,389.60 -594.85,392.05 -593.80,393.80 -592.05,394.85 -589.60,395.20"/>
    </edge>
    <edge id=":n18_9" function="internal">
        <lane id=":n18_9_0" index="0" speed="13.89" length="20.80" shape="-595.20,389.60 -595.20,410.40"/>
        <lane id=":n18_9_1" index="1" speed="13.89" length="20.80" shape="-598.40,389.60 -598.40,410.40"/>
    </edge>
    <edge id=":n18_11" function="internal">
        <lane id=":n18_11_0" index="0" speed="9.26" length="6.96" shape="-598.40,389.60 -599.15,394.85 -600.00,396.27"/>
    </edge>
    <edge id=":n18_17" function="internal">
        <lane id=":n18_17_0" index="0" speed="9.26" length="12.40" shape="-600.00,396.27 -601.40,398.60 -605.15,400.85 -610.40,401.60"/>
    </edge>
    <edge id=":n18_12" function="internal">
        <lane id=":n18_12_0" index="0" speed="6.51" length="9.03" shape="-610.40,395.20 -607.95,394.85 -606.20,393.80 -605.15,392.05 -604.80,389.60"/>
    </edge>
    <edge id=":n18_13" function="internal">
        <lane id=":n18_13_0" index="0" speed="13.89" length="20.80" shape="-610.40,395.20 -589.60,395.20"/>
        <lane id=":n18_13_1" index="1" speed="13.89" length="20.80" shape="-610.40,398.40 -589.60,398.40"/>
    </edge>
    <edge id=":n18_15" function="internal">
        <lane id=":n18_15_0" index="0" speed="9.26" length="19.35" shape="-610.40,398.40 -605.15,399.15 -601.40,401.40 -599.15,405.15 -598.40,410.40"/>
    </edge>
    <edge id=":n19_0" function="internal">
        <lane id=":n19_0_0" index="0" speed="6.51" length="9.03" shape="-404.80,410.40 -405.15,407.95 -406.20,406.20 -407.95,405.15 -410.40,404.80"/>
    </edge>
    <edge id=":n19_1" function="internal">
        <lane id=":n19_1_0" index="0" speed="13.89" length="20.80" shape="-404.80,410.40 -404.80,389.60"/>
        <lane id=":n19_1_1" index="1" speed="13.89" length="20.80" shape="-401.60,410.40 -401.60,389.60"/>
    </edge>
    <edge id=":n19_3" function="internal">
        <lane id=":n19_3_0" index="0" speed="9.26" length="6.96" shape="-401.60,410.40 -400.85,405.15 -400.00,403.73"/>
    </edge>
    <edge id=":n19_16" function="internal">
        <lane id=":n19_16_0" index="0" speed="9.26" length="12.40" shape="-400.00,403.73 -398.60,401.40 -394.85,399.15 -389.60,398.40"/>
    </edge>
    <edge id=":n19_4" function="internal">
        <lane id=":n19_4_0" index="0" speed="6.51" length="9.03" shape="-389.60,404.80 -392.05,405.15 -393.80,406.20 -394.85,407.95 -395.20,410.40"/>
    </edge>
    <edge id=":n19_5" function="internal">
        <lane id=":n19_5_0" index="0" speed="13.89" length="20.80" shape="-389.60,404.80 -410.40,404.80"/>
        <lane id=":n19_5_1" index="1" speed="13.89" length="20.80" shape="-389.60,401.60 -410.40,401.60"/>
    </edge>
    <edge id=":n19_7" function="internal">
        <lane id=":n19_7_0" index="0" speed="9.26" length="19.35" shape="-389.60,401.60 -394.85,400.85 -398.60,398.60 -400.85,394.85 -401.60,389.60"/>
    </edge>
    <edge id=":n19_8" function="internal">
        <lane id=":n19_8_0" index="0" speed="6.51" length="9.03" shape="-395.20,389.60 -394.85,392.05 -393.80,393.80 -392.05,394.85 -389.60,395.20"/>
    </edge>
    <edge id=":n19_9" function="internal">
        <lane id=":n19_9_0" index="0" speed="13.89" length="20.80" shape="-395.20,389.60 -395.20,410.40"/>
        <lane id=":n19_9_1" index="1" speed="13.89" length="20.80" shape="-398.40,389.60 -398.40,410.40"/>
    </edge>
    <edge id=":n19_11" function="internal">
        <lane id=":n19_11_0" index="0" speed="9.26" length="6.96" shape="-398.40,389.60 -399.15,394.85 -400.00,396.27"/>
    </edge>
    <edge id=":n19_17" function="internal">
        <lane id=":n19_17_0" index="0" speed="9.26" length="12.40" shape="-400.00,396.27 -401.40,398.60 -405.15,400.85 -410.40,401.60"/>
    </edge>
    <edge id=":n19_12" function="internal">
        <lane id=":n19_12_0" index="0" speed="6.51" length="9.03" shape="-410.40,395.20 -407.95,394.85 -406.20,393.80 -405.15,392.05 -404.80,389.60"/>
    </edge>
    <edge id=":n19_13" function="internal">
        <lane id=":n19_13_0" index="0" speed="13.89" length="20.80" shape="-410.40,395.20 -389.60,395.20"/>
        <lane id=":n19_13_1" index="1" speed="13.89" length="20.80" shape="-410.40,398.40 -389.60,398.40"/>
    </edge>
    <edge id=":n19_15" function="internal">
        <lane id=":n19_15_0" index="0" speed="9.26" length="19.35" shape="-410.40,398.40 -405.15,399.15 -401.40,401.40 -399.15,405.15 -398.40,410.40"/>
    </edge>
    <edge id=":n2_0" function="internal">
        <lane id=":n2_0_0" index="0" speed="13.89" length="20.80" shape="-789.60,1004.80 -810.40,1004.80"/>
        <lane id=":n2_0_1" index="1" speed="13.89" length="20.80" shape="-789.60,1001.60 -810.40,1001.60"/>
    </edge>
    <edge id=":n2_2" function="internal">
        <lane id=":n2_2_0" index="0" speed="9.26" length="6.96" shape="-789.60,1001.60 -794.85,1000.85 -796.27,1000.00"/>
    </edge>
    <edge id=":n2_8" function="internal">
        <lane id=":n2_8_0" index="0" speed="9.26" length="12.40" shape="-796.27,1000.00 -798.60,998.60 -800.85,994.85 -801.60,989.60"/>
    </edge>
    <edge id=":n2_3" function="internal">
        <lane id=":n2_3_0" index="0" speed="6.51" length="9.03" shape="-795.20,989.60 -794.85,992.05 -793.80,993.80 -792.05,994.85 -789.60,995.20"/>
    </edge>
    <edge id=":n2_4" function="internal">
        <lane id=":n2_4_0" index="0" speed="9.26" length="19.35" shape="-798.40,989.60 -799.15,994.85 -801.40,998.60 -805.15,1000.85 -810.40,1001.60"/>
    </edge>
    <edge id=":n2_5" function="internal">
        <lane id=":n2_5_0" index="0" speed="6.51" length="9.03" shape="-810.40,995.20 -807.95,994.85 -806.20,993.80 -805.15,992.05 -804.80,989.60"/>
    </edge>
    <edge id=":n2_6" function="internal">
        <lane id=":n2_6_0" index="0" speed="13.89" length="20.80" shape="-810.40,995.20 -789.60,995.20"/>
        <lane id=":n2_6_1" index="1" speed="13.89" length="20.80" shape="-810.40,998.40 -789.60,998.40"/>
    </edge>
    <edge id=":n20_0" function="internal">
        <lane id=":n20_0_0" index="0" speed="6.51" length="9.03" shape="-204.80,410.40 -205.15,407.95 -206.20,406.20 -207.95,405.15 -210.40,404.80"/>
    </edge>
    <edge id=":n20_1" function="internal">
        <lane id=":n20_1_0" index="0" speed="13.89" length="20.80" shape="-204.80,410.40 -204.80,389.60"/>
        <lane id=":n20_1_1" index="1" speed="13.89" length="20.80" shape="-201.60,410.40 -201.60,389.60"/>
    </edge>
    <edge id=":n20_3" function="internal">
        <lane id=":n20_3_0" index="0" speed="13.89" length="20.80" shape="-195.20,389.60 -195.20,410.40"/>
        <lane id=":n20_3_1" index="1" speed="13.89" length="20.80" shape="-198.40,389.60 -198.40,410.40"/>
    </edge>
    <edge id=":n20_5" function="internal">
        <lane id=":n20_5_0" index="0" speed="9.26" length="6.96" shape="-198.40,389.60 -199.15,394.85 -200.00,396.27"/>
    </edge>
    <edge id=":n20_8" function="internal">
        <lane id=":n20_8_0" index="0" speed="9.26" length="12.40" shape="-200.00,396.27 -201.40,398.60 -205.15,400.85 -210.40,401.60"/>
    </edge>
    <edge id=":n20_6" function="internal">