<?xml version="1.0" encoding="UTF-8"?>

<!-- generated on 11/19/20 16:41:23 by Eclipse SUMO netedit Version 1.7.0
<configuration xmlns:xsi="http://www.w3.org/2001/XMLSchema-instance" xsi:noNamespaceSchemaLocation="http://sumo.dlr.de/xsd/netconvertConfiguration.xsd">

    <input>
        <sumo-net-file value="C:\Users\marco\Desktop\intersection_auctions\intersection.net.xml"/>
    </input>

    <output>
        <output-file value="C:\Users\marco\Desktop\intersection_auctions\intersection.net.xml"/>
    </output>

    <processing>
        <geometry.min-radius.fix.railways value="false"/>
        <geometry.max-grade.fix value="false"/>
        <offset.disable-normalization value="true"/>
        <lefthand value="false"/>
    </processing>

    <junctions>
        <no-turnarounds value="true"/>
        <junctions.corner-detail value="5"/>
        <junctions.limit-turn-speed value="5.5"/>
        <rectangular-lane-cut value="false"/>
    </junctions>

    <pedestrian>
        <walkingareas value="false"/>
    </pedestrian>

    <netedit>
        <route-files value="C:\Users\marco\Desktop\intersection_auctions\routes.rou.xml"/>
    </netedit>

    <report>
        <aggregate-warnings value="5"/>
    </report>

</configuration>
-->

<routes xmlns:xsi="http://www.w3.org/2001/XMLSchema-instance" xsi:noNamespaceSchemaLocation="http://sumo.dlr.de/xsd/routes_file.xsd">
    <vehicle id="0" depart="0.00">
        <route edges="4 1" color="yellow"/>
    </vehicle>
    <vehicle id="5" depart="5.00">
        <route edges="0 5" color="yellow"/>
    </vehicle>
    <vehicle id="8" depart="8.00">
        <route edges="0 5" color="yellow"/>
    </vehicle>
    <vehicle id="12" depart="12.00">
        <route edges="6 3" color="yellow"/>
    </vehicle>
    <vehicle id="20" depart="20.00">
        <route edges="4 1" color="yellow"/>
    </vehicle>
    <vehicle id="26" depart="26.00">
        <route edges="2 7" color="yellow"/>
    </vehicle>
    <vehicle id="28" depart="28.00">
        <route edges="0 5" color="yellow"/>
    </vehicle>
    <vehicle id="36" depart="36.00">
        <route edges="6 3" color="yellow"/>
    </vehicle>
    <vehicle id="38" depart="38.00">
        <route edges="6 3" color="yellow"/>
    </vehicle>
    <vehicle id="45" depart="45.00">
        <route edges="0 5" color="yellow"/>
    </vehicle>
    <vehicle id="46" depart="46.00">
        <route edges="6 3" color="yellow"/>
    </vehicle>
    <vehicle id="50" depart="50.00">
        <route edges="0 5" color="yellow"/>
    </vehicle>
    <vehicle id="54" depart="54.00">
        <route edges="2 7" color="yellow"/>
    </vehicle>
    <vehicle id="55" depart="55.00">
        <route edges="6 3" color="yellow"/>
    </vehicle>
    <vehicle id="56" depart="56.00">
        <route edges="4 1" color="yellow"/>
    </vehicle>
    <vehicle id="59" depart="59.00">
        <route edges="4 1" color="yellow"/>
    </vehicle>
    <vehicle id="71" depart="71.00">
        <route edges="2 7" color="yellow"/>
    </vehicle>
    <vehicle id="80" depart="80.00">
        <route edges="0 5" color="yellow"/>
    </vehicle>
    <vehicle id="83" depart="83.00">
        <route edges="0 5" color="yellow"/>
    </vehicle>
    <vehicle id="86" depart="86.00">
        <route edges="2 7" color="yellow"/>
    </vehicle>
    <vehicle id="97" depart="97.00">
        <route edges="2 7" color="yellow"/>
    </vehicle>
    <vehicle id="98" depart="98.00">
        <route edges="4 1" color="yellow"/>
    </vehicle>
    <vehicle id="104" depart="104.00">
        <route edges="2 7" color="yellow"/>
    </vehicle>
    <vehicle id="105" depart="105.00">
        <route edges="2 7" color="yellow"/>
    </vehicle>
    <vehicle id="112" depart="112.00">
        <route edges="0 5" color="yellow"/>
    </vehicle>
    <vehicle id="122" depart="122.00">
        <route edges="0 5" color="yellow"/>
    </vehicle>
    <vehicle id="125" depart="125.00">
        <route edges="2 7" color="yellow"/>
    </vehicle>
    <vehicle id="129" depart="129.00">
        <route edges="2 7" color="yellow"/>
    </vehicle>
    <vehicle id="134" depart="134.00">
        <route edges="4 1" color="yellow"/>
    </vehicle>
    <vehicle id="135" depart="135.00">
        <route edges="6 3" color="yellow"/>
    </vehicle>
    <vehicle id="138" depart="138.00">
        <route edges="0 5" color="yellow"/>
    </vehicle>
    <vehicle id="140" depart="140.00">
        <route edges="4 1" color="yellow"/>
    </vehicle>
    <vehicle id="142" depart="142.00">
        <route edges="2 7" color="yellow"/>
    </vehicle>
    <vehicle id="153" depart="153.00">
        <route edges="2 7" color="yellow"/>
    </vehicle>
    <vehicle id="162" depart="162.00">
        <route edges="0 5" color="yellow"/>
    </vehicle>
    <vehicle id="163" depart="163.00">
        <route edges="2 7" color="yellow"/>
    </vehicle>
    <vehicle id="165" depart="165.00">
        <route edges="6 3" color="yellow"/>
    </vehicle>
    <vehicle id="172" depart="172.00">
        <route edges="2 7" color="yellow"/>
    </vehicle>
    <vehicle id="173" depart="173.00">
        <route edges="6 3" color="yellow"/>
    </vehicle>
    <vehicle id="178" depart="178.00">
        <route edges="6 3" color="yellow"/>
    </vehicle>
    <vehicle id="189" depart="189.00">
        <route edges="2 7" color="yellow"/>
    </vehicle>
    <vehicle id="201" depart="201.00">
        <route edges="2 7" color="yellow"/>
    </vehicle>
    <vehicle id="203" depart="203.00">
        <route edges="0 5" color="yellow"/>
    </vehicle>
    <vehicle id="206" depart="206.00">
        <route edges="4 1" color="yellow"/>
    </vehicle>
    <vehicle id="211" depart="211.00">
        <route edges="0 5" color="yellow"/>
    </vehicle>
    <vehicle id="213" depart="213.00">
        <route edges="4 1" color="yellow"/>
    </vehicle>
    <vehicle id="217" depart="217.00">
        <route edges="4 1" color="yellow"/>
    </vehicle>
    <vehicle id="219" depart="219.00">
        <route edges="2 7" color="yellow"/>
    </vehicle>
    <vehicle id="227" depart="227.00">
        <route edges="0 5" color="yellow"/>
    </vehicle>
    <vehicle id="232" depart="232.00">
        <route edges="4 1" color="yellow"/>
    </vehicle>
    <vehicle id="233" depart="233.00">
        <route edges="0 5" color="yellow"/>
    </vehicle>
    <vehicle id="234" depart="234.00">
        <route edges="4 1" color="yellow"/>
    </vehicle>
    <vehicle id="237" depart="237.00">
        <route edges="2 7" color="yellow"/>
    </vehicle>
    <vehicle id="241" depart="241.00">
        <route edges="2 7" color="yellow"/>
    </vehicle>
    <vehicle id="250" depart="250.00">
        <route edges="4 1" color="yellow"/>
    </vehicle>
    <vehicle id="252" depart="252.00">
        <route edges="0 5" color="yellow"/>
    </vehicle>
    <vehicle id="256" depart="256.00">
        <route edges="6 3" color="yellow"/>
    </vehicle>
    <vehicle id="259" depart="259.00">
        <route edges="0 5" color="yellow"/>
    </vehicle>
    <vehicle id="260" depart="260.00">
        <route edges="6 3" color="yellow"/>
    </vehicle>
    <vehicle id="265" depart="265.00">
        <route edges="0 5" color="yellow"/>
    </vehicle>
    <vehicle id="266" depart="266.00">
        <route edges="4 1" color="yellow"/>
    </vehicle>
    <vehicle id="268" depart="268.00">
        <route edges="0 5" color="yellow"/>
    </vehicle>
    <vehicle id="269" depart="269.00">
        <route edges="4 1" color="yellow"/>
    </vehicle>
    <vehicle id="273" depart="273.00">
        <route edges="6 3" color="yellow"/>
    </vehicle>
    <vehicle id="274" depart="274.00">
        <route edges="4 1" color="yellow"/>
    </vehicle>
    <vehicle id="279" depart="279.00">
        <route edges="6 3" color="yellow"/>
    </vehicle>
    <vehicle id="287" depart="287.00">
        <route edges="2 7" color="yellow"/>
    </vehicle>
    <vehicle id="290" depart="290.00">
        <route edges="2 7" color="yellow"/>
    </vehicle>
    <vehicle id="297" depart="297.00">
        <route edges="2 7" color="yellow"/>
    </vehicle>
</routes>
