<?xml version="1.0" encoding="UTF-8"?>

<!-- generated on 11/12/20 12:00:47 by Eclipse SUMO netedit Version 1.7.0
<configuration xmlns:xsi="http://www.w3.org/2001/XMLSchema-instance" xsi:noNamespaceSchemaLocation="http://sumo.dlr.de/xsd/netconvertConfiguration.xsd">

    <input>
        <sumo-net-file value="C:\Users\marco\Desktop\intersection_reservation\intersection.net.xml"/>
    </input>

    <output>
        <output-file value="C:\Users\marco\Desktop\intersection_reservation\intersection.net.xml"/>
    </output>

    <processing>
        <geometry.min-radius.fix.railways value="false"/>
        <geometry.max-grade.fix value="false"/>
        <offset.disable-normalization value="true"/>
        <lefthand value="false"/>
    </processing>

    <junctions>
        <no-turnarounds value="true"/>
        <junctions.corner-detail value="5"/>
        <junctions.limit-turn-speed value="5.5"/>
        <rectangular-lane-cut value="false"/>
    </junctions>

    <pedestrian>
        <walkingareas value="false"/>
    </pedestrian>

    <netedit>
        <additional-files value="C:\Users\marco\Desktop\intersection_reservation\intersection.add.xml"/>
    </netedit>

    <report>
        <aggregate-warnings value="5"/>
    </report>

</configuration>
-->

<additional xmlns:xsi="http://www.w3.org/2001/XMLSchema-instance" xsi:noNamespaceSchemaLocation="http://sumo.dlr.de/xsd/additional_file.xsd">
    <e1Detector id="0" lane="2to5_1" pos="36.39" freq="900.00" file="out.xml"/>
    <e1Detector id="1" lane="2to5_2" pos="36.39" freq="900.00" file="out.xml"/>
    <e1Detector id="10" lane="5to3_2" pos="0.00" freq="900.00" file="out.xml"/>
    <e1Detector id="11" lane="5to3_1" pos="0.00" freq="900.00" file="out.xml"/>
    <e1Detector id="12" lane="5to4_2" pos="0.00" freq="900.00" file="out.xml"/>
    <e1Detector id="13" lane="5to4_1" pos="0.00" freq="900.00" file="out.xml"/>
    <e1Detector id="14" lane="5to1_2" pos="0.00" freq="900.00" file="out.xml"/>
    <e1Detector id="15" lane="5to1_1" pos="0.00" freq="900.00" file="out.xml"/>
    <e1Detector id="2" lane="3to5_1" pos="36.39" freq="900.00" file="out.xml"/>
    <e1Detector id="3" lane="3to5_2" pos="36.39" freq="900.00" file="out.xml"/>
    <e1Detector id="4" lane="4to5_1" pos="36.39" freq="900.00" file="out.xml"/>
    <e1Detector id="5" lane="4to5_2" pos="36.39" freq="900.00" file="out.xml"/>
    <e1Detector id="6" lane="1to5_1" pos="36.39" freq="900.00" file="out.xml"/>
    <e1Detector id="7" lane="1to5_2" pos="36.39" freq="900.00" file="out.xml"/>
    <e1Detector id="8" lane="5to2_2" pos="0.00" freq="900.00" file="out.xml"/>
    <e1Detector id="9" lane="5to2_1" pos="0.00" freq="900.00" file="out.xml"/>
</additional>
