<?xml version="1.0" encoding="UTF-8"?>

<!-- generated on 11/23/20 18:55:37 by Eclipse SUMO netedit Version 1.7.0
<configuration xmlns:xsi="http://www.w3.org/2001/XMLSchema-instance" xsi:noNamespaceSchemaLocation="http://sumo.dlr.de/xsd/netconvertConfiguration.xsd">

    <input>
        <sumo-net-file value="C:\Users\marco\Desktop\intersection_auctions\intersection.net.xml"/>
    </input>

    <output>
        <output-file value="C:\Users\marco\Desktop\intersection_auctions\intersection.net.xml"/>
    </output>

    <processing>
        <geometry.min-radius.fix.railways value="false"/>
        <geometry.max-grade.fix value="false"/>
        <offset.disable-normalization value="true"/>
        <lefthand value="false"/>
    </processing>

    <junctions>
        <no-turnarounds value="true"/>
        <junctions.corner-detail value="5"/>
        <junctions.limit-turn-speed value="5.5"/>
        <rectangular-lane-cut value="false"/>
    </junctions>

    <pedestrian>
        <walkingareas value="false"/>
    </pedestrian>

    <report>
        <aggregate-warnings value="5"/>
    </report>

</configuration>
-->

<net version="1.6" junctionCornerDetail="5" limitTurnSpeed="5.50" xmlns:xsi="http://www.w3.org/2001/XMLSchema-instance" xsi:noNamespaceSchemaLocation="http://sumo.dlr.de/xsd/net_file.xsd">

    <location netOffset="0.00,0.00" convBoundary="-100.00,-100.00,100.00,100.00" origBoundary="-10000000000.00,-10000000000.00,10000000000.00,10000000000.00" projParameter="!"/>

    <edge id=":4_0" function="internal">
        <lane id=":4_0_0" index="0" speed="13.89" length="14.40" shape="-1.60,7.20 -1.60,-7.20"/>
    </edge>
    <edge id=":4_1" function="internal">
        <lane id=":4_1_0" index="0" speed="13.89" length="14.40" shape="7.20,1.60 -7.20,1.60"/>
    </edge>
    <edge id=":4_2" function="internal">
        <lane id=":4_2_0" index="0" speed="13.89" length="14.40" shape="1.60,-7.20 1.60,7.20"/>
    </edge>
    <edge id=":4_3" function="internal">
        <lane id=":4_3_0" index="0" speed="13.89" length="14.40" shape="-7.20,-1.60 7.20,-1.60"/>
    </edge>

    <edge id="0" from="0" to="4" priority="-1">
        <lane id="0_0" index="0" speed="13.89" length="92.80" shape="-1.60,100.00 -1.60,7.20"/>
    </edge>
    <edge id="1" from="4" to="0" priority="-1">
        <lane id="1_0" index="0" speed="13.89" length="92.80" shape="1.60,7.20 1.60,100.00"/>
    </edge>
    <edge id="2" from="1" to="4" priority="-1">
        <lane id="2_0" index="0" speed="13.89" length="92.80" shape="100.00,1.60 7.20,1.60"/>
    </edge>
    <edge id="3" from="4" to="1" priority="-1">
        <lane id="3_0" index="0" speed="13.89" length="92.80" shape="7.20,-1.60 100.00,-1.60"/>
    </edge>
    <edge id="4" from="2" to="4" priority="-1">
        <lane id="4_0" index="0" speed="13.89" length="92.80" shape="1.60,-100.00 1.60,-7.20"/>
    </edge>
    <edge id="5" from="4" to="2" priority="-1">
        <lane id="5_0" index="0" speed="13.89" length="92.80" shape="-1.60,-7.20 -1.60,-100.00"/>
    </edge>
    <edge id="6" from="3" to="4" priority="-1">
        <lane id="6_0" index="0" speed="13.89" length="92.80" shape="-100.00,-1.60 -7.20,-1.60"/>
    </edge>
    <edge id="7" from="4" to="3" priority="-1">
        <lane id="7_0" index="0" speed="13.89" length="92.80" shape="-7.20,1.60 -100.00,1.60"/>
    </edge>

    <tlLogic id="4" type="static" programID="0" offset="0">
        <phase duration="100000" state="grrr"/>
        <phase duration="100000" state="rgrr"/>
        <phase duration="100000" state="rrgr"/>
        <phase duration="100000" state="rrrg"/>
    </tlLogic>

    <junction id="0" type="dead_end" x="0.00" y="100.00" incLanes="1_0" intLanes="" shape="0.00,100.00 3.20,100.00 0.00,100.00"/>
    <junction id="1" type="dead_end" x="100.00" y="0.00" incLanes="3_0" intLanes="" shape="100.00,0.00 100.00,-3.20 100.00,0.00"/>
    <junction id="2" type="dead_end" x="0.00" y="-100.00" incLanes="5_0" intLanes="" shape="0.00,-100.00 -3.20,-100.00 0.00,-100.00"/>
    <junction id="3" type="dead_end" x="-100.00" y="0.00" incLanes="7_0" intLanes="" shape="-100.00,0.00 -100.00,3.20 -100.00,0.00"/>
    <junction id="4" type="traffic_light" x="0.00" y="0.00" incLanes="0_0 2_0 4_0 6_0" intLanes=":4_0_0 :4_1_0 :4_2_0 :4_3_0" shape="-3.20,7.20 3.20,7.20 3.64,4.98 4.20,4.20 4.98,3.64 5.98,3.31 7.20,3.20 7.20,-3.20 4.98,-3.64 4.20,-4.20 3.64,-4.98 3.31,-5.98 3.20,-7.20 -3.20,-7.20 -3.64,-4.98 -4.20,-4.20 -4.98,-3.64 -5.98,-3.31 -7.20,-3.20 -7.20,3.20 -4.98,3.64 -4.20,4.20 -3.64,4.98 -3.31,5.98">
        <request index="0" response="0000" foes="1010" cont="0"/>
        <request index="1" response="0101" foes="0101" cont="0"/>
        <request index="2" response="0000" foes="1010" cont="0"/>
        <request index="3" response="0101" foes="0101" cont="0"/>
    </junction>

    <connection from="0" to="5" fromLane="0" toLane="0" via=":4_0_0" tl="4" linkIndex="0" dir="s" state="O"/>
    <connection from="2" to="7" fromLane="0" toLane="0" via=":4_1_0" tl="4" linkIndex="1" dir="s" state="o"/>
    <connection from="4" to="1" fromLane="0" toLane="0" via=":4_2_0" tl="4" linkIndex="2" dir="s" state="O"/>
    <connection from="6" to="3" fromLane="0" toLane="0" via=":4_3_0" tl="4" linkIndex="3" dir="s" state="o"/>

    <connection from=":4_0" to="5" fromLane="0" toLane="0" dir="s" state="M"/>
    <connection from=":4_1" to="7" fromLane="0" toLane="0" dir="s" state="M"/>
    <connection from=":4_2" to="1" fromLane="0" toLane="0" dir="s" state="M"/>
    <connection from=":4_3" to="3" fromLane="0" toLane="0" dir="s" state="M"/>

</net>
