<?xml version="1.0" encoding="UTF-8"?>

<!-- generated on 11/17/20 18:04:16 by Eclipse SUMO netedit Version 1.7.0
<configuration xmlns:xsi="http://www.w3.org/2001/XMLSchema-instance" xsi:noNamespaceSchemaLocation="http://sumo.dlr.de/xsd/netconvertConfiguration.xsd">

    <input>
        <sumo-net-file value="C:\Users\marco\Desktop\Intersection_new\intersection.net.xml"/>
    </input>

    <output>
        <output-file value="C:\Users\marco\Desktop\Intersection_new\intersection.net.xml"/>
    </output>

    <processing>
        <geometry.min-radius.fix.railways value="false"/>
        <geometry.max-grade.fix value="false"/>
        <offset.disable-normalization value="true"/>
        <lefthand value="false"/>
    </processing>

    <junctions>
        <no-turnarounds value="true"/>
        <junctions.corner-detail value="5"/>
        <junctions.limit-turn-speed value="5.5"/>
        <rectangular-lane-cut value="false"/>
    </junctions>

    <pedestrian>
        <walkingareas value="false"/>
    </pedestrian>

    <netedit>
        <additional-files value="C:\Users\marco\Desktop\Intersection_new\intersection.add.xml"/>
    </netedit>

    <report>
        <aggregate-warnings value="5"/>
    </report>

</configuration>
-->

<additional xmlns:xsi="http://www.w3.org/2001/XMLSchema-instance" xsi:noNamespaceSchemaLocation="http://sumo.dlr.de/xsd/additional_file.xsd">
    <e1Detector id="0" lane="0_0" pos="40.00" freq="900.00" file="out.xml"/>
    <e1Detector id="1" lane="2_0" pos="40.00" freq="900.00" file="out.xml"/>
    <e1Detector id="2" lane="4_0" pos="40.00" freq="900.00" file="out.xml"/>
    <e1Detector id="3" lane="6_0" pos="40.00" freq="900.00" file="out.xml"/>
</additional>
