<?xml version="1.0" encoding="UTF-8"?>

<!-- generated on 12/28/20 14:55:46 by Eclipse SUMO GUI Version 1.7.0
-->

<configuration xmlns:xsi="http://www.w3.org/2001/XMLSchema-instance" xsi:noNamespaceSchemaLocation="http://sumo.dlr.de/xsd/sumoConfiguration.xsd">

    <input>
        <net-file value="C:\Users\marco\PycharmProjects\crossing\intersection_glorio_gambelli\not_working\da%20guardare\intersection.net.xml"/>
    </input>

</configuration>
