<?xml version="1.0" encoding="UTF-8"?>

<!-- generated on 12/21/20 18:35:50 by Eclipse SUMO GUI Version 1.7.0
-->

<configuration xmlns:xsi="http://www.w3.org/2001/XMLSchema-instance" xsi:noNamespaceSchemaLocation="http://sumo.dlr.de/xsd/sumoConfiguration.xsd">

    <input>
        <net-file value="C:\Users\marco\PycharmProjects\crossing\intersection_glorio_gambelli\working\auction\intersection.net.xml"/>
    </input>

</configuration>
