<?xml version="1.0" encoding="UTF-8"?>

<net version="1.6" junctionCornerDetail="5" limitTurnSpeed="5.50" xmlns:xsi="http://www.w3.org/2001/XMLSchema-instance" xsi:noNamespaceSchemaLocation="http://sumo.dlr.de/xsd/net_file.xsd">

    <location netOffset="0.00,0.00" convBoundary="-1000.00,200.00,-200.00,1000.00" origBoundary="-10000000000.00,-10000000000.00,10000000000.00,10000000000.00" projParameter="!"/>

    <edge id=":n1_0" function="internal">
        <lane id=":n1_0_0" index="0" speed="11.12" length="28.38" shape="-990.40,1008.00 -998.10,1006.90 -1003.60,1003.60 -1006.90,998.10 -1008.00,990.40"/>
    </edge>
    <edge id=":n1_1" function="internal">
        <lane id=":n1_1_0" index="0" speed="10.10" length="23.22" shape="-990.40,1004.80 -996.70,1003.90 -1001.20,1001.20 -1003.90,996.70 -1004.80,990.40"/>
    </edge>
    <edge id=":n1_2" function="internal">
        <lane id=":n1_2_0" index="0" speed="8.96" length="18.06" shape="-990.40,1001.60 -995.30,1000.90 -998.80,998.80 -1000.90,995.30 -1001.60,990.40"/>
    </edge>
    <edge id=":n1_3" function="internal">
        <lane id=":n1_3_0" index="0" speed="3.90" length="2.58" shape="-992.00,990.40 -991.90,991.10 -991.60,991.60 -991.10,991.90 -990.40,992.00"/>
    </edge>
    <edge id=":n1_4" function="internal">
        <lane id=":n1_4_0" index="0" speed="6.08" length="7.74" shape="-995.20,990.40 -994.90,992.50 -994.00,994.00 -992.50,994.90 -990.40,995.20"/>
    </edge>
    <edge id=":n1_5" function="internal">
        <lane id=":n1_5_0" index="0" speed="7.66" length="12.90" shape="-998.40,990.40 -997.90,993.90 -996.40,996.40 -993.90,997.90 -990.40,998.40"/>
    </edge>
    <edge id=":n10_0" function="internal">
        <lane id=":n10_0_0" index="0" speed="6.51" length="9.03" shape="-208.00,813.60 -208.35,811.15 -209.40,809.40 -211.15,808.35 -213.60,808.00"/>
    </edge>
    <edge id=":n10_1" function="internal">
        <lane id=":n10_1_0" index="0" speed="13.89" length="27.20" shape="-204.80,813.60 -204.80,786.40"/>
        <lane id=":n10_1_1" index="1" speed="13.89" length="27.20" shape="-201.60,813.60 -201.60,786.40"/>
    </edge>
    <edge id=":n10_3" function="internal">
        <lane id=":n10_3_0" index="0" speed="13.89" length="27.20" shape="-192.00,786.40 -192.00,813.60"/>
        <lane id=":n10_3_1" index="1" speed="13.89" length="27.20" shape="-195.20,786.40 -195.20,813.60"/>
    </edge>
    <edge id=":n10_5" function="internal">
        <lane id=":n10_5_0" index="0" speed="10.36" length="7.98" shape="-198.40,786.40 -199.35,793.05 -200.00,794.13"/>
    </edge>
    <edge id=":n10_10" function="internal">
        <lane id=":n10_10_0" index="0" speed="10.36" length="16.53" shape="-200.00,794.13 -202.20,797.80 -206.95,800.65 -213.60,801.60"/>
    </edge>
    <edge id=":n10_6" function="internal">
        <lane id=":n10_6_0" index="0" speed="6.51" length="9.03" shape="-213.60,792.00 -211.15,791.65 -209.40,790.60 -208.35,788.85 -208.00,786.40"/>
    </edge>
    <edge id=":n10_7" function="internal">
        <lane id=":n10_7_0" index="0" speed="8.00" length="14.19" shape="-213.60,795.20 -209.75,794.65 -207.00,793.00 -205.35,790.25 -204.80,786.40"/>
    </edge>
    <edge id=":n10_8" function="internal">
        <lane id=":n10_8_0" index="0" speed="11.36" length="29.67" shape="-213.60,795.20 -205.55,796.35 -199.80,799.80 -196.35,805.55 -195.20,813.60"/>
    </edge>
    <edge id=":n10_9" function="internal">
        <lane id=":n10_9_0" index="0" speed="10.36" length="24.51" shape="-213.60,798.40 -206.95,799.35 -202.20,802.20 -199.35,806.95 -198.40,813.60"/>
    </edge>
    <edge id=":n11_0" function="internal">
        <lane id=":n11_0_0" index="0" speed="13.89" length="27.20" shape="-1008.00,613.60 -1008.00,586.40"/>
        <lane id=":n11_0_1" index="1" speed="13.89" length="27.20" shape="-1004.80,613.60 -1004.80,586.40"/>
    </edge>
    <edge id=":n11_2" function="internal">
        <lane id=":n11_2_0" index="0" speed="10.36" length="7.98" shape="-1001.60,613.60 -1000.65,606.95 -1000.00,605.87"/>
    </edge>
    <edge id=":n11_10" function="internal">
        <lane id=":n11_10_0" index="0" speed="10.36" length="16.53" shape="-1000.00,605.87 -997.80,602.20 -993.05,599.35 -986.40,598.40"/>
    </edge>
    <edge id=":n11_3" function="internal">
        <lane id=":n11_3_0" index="0" speed="6.51" length="9.03" shape="-986.40,608.00 -988.85,608.35 -990.60,609.40 -991.65,611.15 -992.00,613.60"/>
    </edge>
    <edge id=":n11_4" function="internal">
        <lane id=":n11_4_0" index="0" speed="8.00" length="14.19" shape="-986.40,604.80 -990.25,605.35 -993.00,607.00 -994.65,609.75 -995.20,613.60"/>
    </edge>
    <edge id=":n11_5" function="internal">
        <lane id=":n11_5_0" index="0" speed="11.36" length="29.67" shape="-986.40,604.80 -994.45,603.65 -1000.20,600.20 -1003.65,594.45 -1004.80,586.40"/>
    </edge>
    <edge id=":n11_6" function="internal">
        <lane id=":n11_6_0" index="0" speed="10.36" length="24.51" shape="-986.40,601.60 -993.05,600.65 -997.80,597.80 -1000.65,593.05 -1001.60,586.40"/>
    </edge>
    <edge id=":n11_7" function="internal">
        <lane id=":n11_7_0" index="0" speed="6.51" length="9.03" shape="-992.00,586.40 -991.65,588.85 -990.60,590.60 -988.85,591.65 -986.40,592.00"/>
    </edge>
    <edge id=":n11_8" function="internal">
        <lane id=":n11_8_0" index="0" speed="13.89" length="27.20" shape="-995.20,586.40 -995.20,613.60"/>
        <lane id=":n11_8_1" index="1" speed="13.89" length="27.20" shape="-998.40,586.40 -998.40,613.60"/>
    </edge>
    <edge id=":n12_0" function="internal">
        <lane id=":n12_0_0" index="0" speed="6.51" length="9.03" shape="-808.00,613.60 -808.35,611.15 -809.40,609.40 -811.15,608.35 -813.60,608.00"/>
    </edge>
    <edge id=":n12_1" function="internal">
        <lane id=":n12_1_0" index="0" speed="13.89" length="27.20" shape="-804.80,613.60 -804.80,586.40"/>
    </edge>
    <edge id=":n12_2" function="internal">
        <lane id=":n12_2_0" index="0" speed="10.36" length="13.42" shape="-801.60,613.60 -800.65,606.95 -797.80,602.20 -796.80,601.60"/>
    </edge>
    <edge id=":n12_12" function="internal">
        <lane id=":n12_12_0" index="0" speed="10.36" length="11.09" shape="-796.80,601.60 -793.05,599.35 -786.40,598.40"/>
    </edge>
    <edge id=":n12_3" function="internal">
        <lane id=":n12_3_0" index="0" speed="6.51" length="9.03" shape="-786.40,608.00 -788.85,608.35 -790.60,609.40 -791.65,611.15 -792.00,613.60"/>
    </edge>
    <edge id=":n12_4" function="internal">
        <lane id=":n12_4_0" index="0" speed="13.89" length="27.20" shape="-786.40,604.80 -813.60,604.80"/>
    </edge>
    <edge id=":n12_5" function="internal">
        <lane id=":n12_5_0" index="0" speed="10.36" length="24.51" shape="-786.40,601.60 -793.05,600.65 -797.80,597.80 -800.65,593.05 -801.60,586.40"/>
    </edge>
    <edge id=":n12_6" function="internal">
        <lane id=":n12_6_0" index="0" speed="6.51" length="9.03" shape="-792.00,586.40 -791.65,588.85 -790.60,590.60 -788.85,591.65 -786.40,592.00"/>
    </edge>
    <edge id=":n12_7" function="internal">
        <lane id=":n12_7_0" index="0" speed="13.89" length="27.20" shape="-795.20,586.40 -795.20,613.60"/>
    </edge>
    <edge id=":n12_8" function="internal">
        <lane id=":n12_8_0" index="0" speed="10.36" length="13.42" shape="-798.40,586.40 -799.35,593.05 -802.20,597.80 -803.20,598.40"/>
    </edge>
    <edge id=":n12_13" function="internal">
        <lane id=":n12_13_0" index="0" speed="10.36" length="11.09" shape="-803.20,598.40 -806.95,600.65 -813.60,601.60"/>
    </edge>
    <edge id=":n12_9" function="internal">
        <lane id=":n12_9_0" index="0" speed="6.51" length="9.03" shape="-813.60,592.00 -811.15,591.65 -809.40,590.60 -808.35,588.85 -808.00,586.40"/>
    </edge>
    <edge id=":n12_10" function="internal">
        <lane id=":n12_10_0" index="0" speed="13.89" length="27.20" shape="-813.60,595.20 -786.40,595.20"/>
    </edge>
    <edge id=":n12_11" function="internal">
        <lane id=":n12_11_0" index="0" speed="10.36" length="24.51" shape="-813.60,598.40 -806.95,599.35 -802.20,602.20 -799.35,606.95 -798.40,613.60"/>
    </edge>
    <edge id=":n13_0" function="internal">
        <lane id=":n13_0_0" index="0" speed="6.51" length="9.03" shape="-608.00,613.60 -608.35,611.15 -609.40,609.40 -611.15,608.35 -613.60,608.00"/>
    </edge>
    <edge id=":n13_1" function="internal">
        <lane id=":n13_1_0" index="0" speed="13.89" length="27.20" shape="-604.80,613.60 -604.80,586.40"/>
    </edge>
    <edge id=":n13_2" function="internal">
        <lane id=":n13_2_0" index="0" speed="10.36" length="13.42" shape="-601.60,613.60 -600.65,606.95 -597.80,602.20 -596.80,601.60"/>
    </edge>
    <edge id=":n13_12" function="internal">
        <lane id=":n13_12_0" index="0" speed="10.36" length="11.09" shape="-596.80,601.60 -593.05,599.35 -586.40,598.40"/>
    </edge>
    <edge id=":n13_3" function="internal">
        <lane id=":n13_3_0" index="0" speed="6.51" length="9.03" shape="-586.40,608.00 -588.85,608.35 -590.60,609.40 -591.65,611.15 -592.00,613.60"/>
    </edge>
    <edge id=":n13_4" function="internal">
        <lane id=":n13_4_0" index="0" speed="13.89" length="27.20" shape="-586.40,604.80 -613.60,604.80"/>
    </edge>
    <edge id=":n13_5" function="internal">
        <lane id=":n13_5_0" index="0" speed="10.36" length="24.51" shape="-586.40,601.60 -593.05,600.65 -597.80,597.80 -600.65,593.05 -601.60,586.40"/>
    </edge>
    <edge id=":n13_6" function="internal">
        <lane id=":n13_6_0" index="0" speed="6.51" length="9.03" shape="-592.00,586.40 -591.65,588.85 -590.60,590.60 -588.85,591.65 -586.40,592.00"/>
    </edge>
    <edge id=":n13_7" function="internal">
        <lane id=":n13_7_0" index="0" speed="13.89" length="27.20" shape="-595.20,586.40 -595.20,613.60"/>
    </edge>
    <edge id=":n13_8" function="internal">
        <lane id=":n13_8_0" index="0" speed="10.36" length="13.42" shape="-598.40,586.40 -599.35,593.05 -602.20,597.80 -603.20,598.40"/>
    </edge>
    <edge id=":n13_13" function="internal">
        <lane id=":n13_13_0" index="0" speed="10.36" length="11.09" shape="-603.20,598.40 -606.95,600.65 -613.60,601.60"/>
    </edge>
    <edge id=":n13_9" function="internal">
        <lane id=":n13_9_0" index="0" speed="6.51" length="9.03" shape="-613.60,592.00 -611.15,591.65 -609.40,590.60 -608.35,588.85 -608.00,586.40"/>
    </edge>
    <edge id=":n13_10" function="internal">
        <lane id=":n13_10_0" index="0" speed="13.89" length="27.20" shape="-613.60,595.20 -586.40,595.20"/>
    </edge>
    <edge id=":n13_11" function="internal">
        <lane id=":n13_11_0" index="0" speed="10.36" length="24.51" shape="-613.60,598.40 -606.95,599.35 -602.20,602.20 -599.35,606.95 -598.40,613.60"/>
    </edge>
    <edge id=":n14_0" function="internal">
        <lane id=":n14_0_0" index="0" speed="6.51" length="9.03" shape="-408.00,613.60 -408.35,611.15 -409.40,609.40 -411.15,608.35 -413.60,608.00"/>
    </edge>
    <edge id=":n14_1" function="internal">
        <lane id=":n14_1_0" index="0" speed="13.89" length="27.20" shape="-404.80,613.60 -404.80,586.40"/>
    </edge>
    <edge id=":n14_2" function="internal">
        <lane id=":n14_2_0" index="0" speed="10.36" length="13.42" shape="-401.60,613.60 -400.65,606.95 -397.80,602.20 -396.80,601.60"/>
    </edge>
    <edge id=":n14_12" function="internal">
        <lane id=":n14_12_0" index="0" speed="10.36" length="11.09" shape="-396.80,601.60 -393.05,599.35 -386.40,598.40"/>
    </edge>
    <edge id=":n14_3" function="internal">
        <lane id=":n14_3_0" index="0" speed="6.51" length="9.03" shape="-386.40,608.00 -388.85,608.35 -390.60,609.40 -391.65,611.15 -392.00,613.60"/>
    </edge>
    <edge id=":n14_4" function="internal">
        <lane id=":n14_4_0" index="0" speed="13.89" length="27.20" shape="-386.40,604.80 -413.60,604.80"/>
    </edge>
    <edge id=":n14_5" function="internal">
        <lane id=":n14_5_0" index="0" speed="10.36" length="24.51" shape="-386.40,601.60 -393.05,600.65 -397.80,597.80 -400.65,593.05 -401.60,586.40"/>
    </edge>
    <edge id=":n14_6" function="internal">
        <lane id=":n14_6_0" index="0" speed="6.51" length="9.03" shape="-392.00,586.40 -391.65,588.85 -390.60,590.60 -388.85,591.65 -386.40,592.00"/>
    </edge>
    <edge id=":n14_7" function="internal">
        <lane id=":n14_7_0" index="0" speed="13.89" length="27.20" shape="-395.20,586.40 -395.20,613.60"/>
    </edge>
    <edge id=":n14_8" function="internal">
        <lane id=":n14_8_0" index="0" speed="10.36" length="13.42" shape="-398.40,586.40 -399.35,593.05 -402.20,597.80 -403.20,598.40"/>
    </edge>
    <edge id=":n14_13" function="internal">
        <lane id=":n14_13_0" index="0" speed="10.36" length="11.09" shape="-403.20,598.40 -406.95,600.65 -413.60,601.60"/>
    </edge>
    <edge id=":n14_9" function="internal">
        <lane id=":n14_9_0" index="0" speed="6.51" length="9.03" shape="-413.60,592.00 -411.15,591.65 -409.40,590.60 -408.35,588.85 -408.00,586.40"/>
    </edge>
    <edge id=":n14_10" function="internal">
        <lane id=":n14_10_0" index="0" speed="13.89" length="27.20" shape="-413.60,595.20 -386.40,595.20"/>
    </edge>
    <edge id=":n14_11" function="internal">
        <lane id=":n14_11_0" index="0" speed="10.36" length="24.51" shape="-413.60,598.40 -406.95,599.35 -402.20,602.20 -399.35,606.95 -398.40,613.60"/>
    </edge>
    <edge id=":n15_0" function="internal">
        <lane id=":n15_0_0" index="0" speed="6.51" length="9.03" shape="-208.00,613.60 -208.35,611.15 -209.40,609.40 -211.15,608.35 -213.60,608.00"/>
    </edge>
    <edge id=":n15_1" function="internal">
        <lane id=":n15_1_0" index="0" speed="13.89" length="27.20" shape="-204.80,613.60 -204.80,586.40"/>
        <lane id=":n15_1_1" index="1" speed="13.89" length="27.20" shape="-201.60,613.60 -201.60,586.40"/>
    </edge>
    <edge id=":n15_3" function="internal">
        <lane id=":n15_3_0" index="0" speed="13.89" length="27.20" shape="-192.00,586.40 -192.00,613.60"/>
        <lane id=":n15_3_1" index="1" speed="13.89" length="27.20" shape="-195.20,586.40 -195.20,613.60"/>
    </edge>
    <edge id=":n15_5" function="internal">
        <lane id=":n15_5_0" index="0" speed="10.36" length="7.98" shape="-198.40,586.40 -199.35,593.05 -200.00,594.13"/>
    </edge>
    <edge id=":n15_10" function="internal">
        <lane id=":n15_10_0" index="0" speed="10.36" length="16.53" shape="-200.00,594.13 -202.20,597.80 -206.95,600.65 -213.60,601.60"/>
    </edge>
    <edge id=":n15_6" function="internal">
        <lane id=":n15_6_0" index="0" speed="6.51" length="9.03" shape="-213.60,592.00 -211.15,591.65 -209.40,590.60 -208.35,588.85 -208.00,586.40"/>
    </edge>
    <edge id=":n15_7" function="internal">
        <lane id=":n15_7_0" index="0" speed="8.00" length="14.19" shape="-213.60,595.20 -209.75,594.65 -207.00,593.00 -205.35,590.25 -204.80,586.40"/>
    </edge>
    <edge id=":n15_8" function="internal">
        <lane id=":n15_8_0" index="0" speed="11.36" length="29.67" shape="-213.60,595.20 -205.55,596.35 -199.80,599.80 -196.35,605.55 -195.20,613.60"/>
    </edge>
    <edge id=":n15_9" function="internal">
        <lane id=":n15_9_0" index="0" speed="10.36" length="24.51" shape="-213.60,598.40 -206.95,599.35 -202.20,602.20 -199.35,606.95 -198.40,613.60"/>
    </edge>
    <edge id=":n16_0" function="internal">
        <lane id=":n16_0_0" index="0" speed="13.89" length="27.20" shape="-1008.00,413.60 -1008.00,386.40"/>
        <lane id=":n16_0_1" index="1" speed="13.89" length="27.20" shape="-1004.80,413.60 -1004.80,386.40"/>
    </edge>
    <edge id=":n16_2" function="internal">
        <lane id=":n16_2_0" index="0" speed="10.36" length="7.98" shape="-1001.60,413.60 -1000.65,406.95 -1000.00,405.87"/>
    </edge>
    <edge id=":n16_10" function="internal">
        <lane id=":n16_10_0" index="0" speed="10.36" length="16.53" shape="-1000.00,405.87 -997.80,402.20 -993.05,399.35 -986.40,398.40"/>
    </edge>
    <edge id=":n16_3" function="internal">
        <lane id=":n16_3_0" index="0" speed="6.51" length="9.03" shape="-986.40,408.00 -988.85,408.35 -990.60,409.40 -991.65,411.15 -992.00,413.60"/>
    </edge>
    <edge id=":n16_4" function="internal">
        <lane id=":n16_4_0" index="0" speed="8.00" length="14.19" shape="-986.40,404.80 -990.25,405.35 -993.00,407.00 -994.65,409.75 -995.20,413.60"/>
    </edge>
    <edge id=":n16_5" function="internal">
        <lane id=":n16_5_0" index="0" speed="11.36" length="29.67" shape="-986.40,404.80 -994.45,403.65 -1000.20,400.20 -1003.65,394.45 -1004.80,386.40"/>
    </edge>
    <edge id=":n16_6" function="internal">
        <lane id=":n16_6_0" index="0" speed="10.36" length="24.51" shape="-986.40,401.60 -993.05,400.65 -997.80,397.80 -1000.65,393.05 -1001.60,386.40"/>
    </edge>
    <edge id=":n16_7" function="internal">
        <lane id=":n16_7_0" index="0" speed="6.51" length="9.03" shape="-992.00,386.40 -991.65,388.85 -990.60,390.60 -988.85,391.65 -986.40,392.00"/>
    </edge>
    <edge id=":n16_8" function="internal">
        <lane id=":n16_8_0" index="0" speed="13.89" length="27.20" shape="-995.20,386.40 -995.20,413.60"/>
        <lane id=":n16_8_1" index="1" speed="13.89" length="27.20" shape="-998.40,386.40 -998.40,413.60"/>
    </edge>
    <edge id=":n17_0" function="internal">
        <lane id=":n17_0_0" index="0" speed="6.51" length="9.03" shape="-808.00,413.60 -808.35,411.15 -809.40,409.40 -811.15,408.35 -813.60,408.00"/>
    </edge>
    <edge id=":n17_1" function="internal">
        <lane id=":n17_1_0" index="0" speed="13.89" length="27.20" shape="-804.80,413.60 -804.80,386.40"/>
    </edge>
    <edge id=":n17_2" function="internal">
        <lane id=":n17_2_0" index="0" speed="10.36" length="13.42" shape="-801.60,413.60 -800.65,406.95 -797.80,402.20 -796.80,401.60"/>
    </edge>
    <edge id=":n17_12" function="internal">
        <lane id=":n17_12_0" index="0" speed="10.36" length="11.09" shape="-796.80,401.60 -793.05,399.35 -786.40,398.40"/>
    </edge>
    <edge id=":n17_3" function="internal">
        <lane id=":n17_3_0" index="0" speed="6.51" length="9.03" shape="-786.40,408.00 -788.85,408.35 -790.60,409.40 -791.65,411.15 -792.00,413.60"/>
    </edge>
    <edge id=":n17_4" function="internal">
        <lane id=":n17_4_0" index="0" speed="13.89" length="27.20" shape="-786.40,404.80 -813.60,404.80"/>
    </edge>
    <edge id=":n17_5" function="internal">
        <lane id=":n17_5_0" index="0" speed="10.36" length="24.51" shape="-786.40,401.60 -793.05,400.65 -797.80,397.80 -800.65,393.05 -801.60,386.40"/>
    </edge>
    <edge id=":n17_6" function="internal">
        <lane id=":n17_6_0" index="0" speed="6.51" length="9.03" shape="-792.00,386.40 -791.65,388.85 -790.60,390.60 -788.85,391.65 -786.40,392.00"/>
    </edge>
    <edge id=":n17_7" function="internal">
        <lane id=":n17_7_0" index="0" speed="13.89" length="27.20" shape="-795.20,386.40 -795.20,413.60"/>
    </edge>
    <edge id=":n17_8" function="internal">
        <lane id=":n17_8_0" index="0" speed="10.36" length="13.42" shape="-798.40,386.40 -799.35,393.05 -802.20,397.80 -803.20,398.40"/>
    </edge>
    <edge id=":n17_13" function="internal">
        <lane id=":n17_13_0" index="0" speed="10.36" length="11.09" shape="-803.20,398.40 -806.95,400.65 -813.60,401.60"/>
    </edge>
    <edge id=":n17_9" function="internal">
        <lane id=":n17_9_0" index="0" speed="6.51" length="9.03" shape="-813.60,392.00 -811.15,391.65 -809.40,390.60 -808.35,388.85 -808.00,386.40"/>
    </edge>
    <edge id=":n17_10" function="internal">
        <lane id=":n17_10_0" index="0" speed="13.89" length="27.20" shape="-813.60,395.20 -786.40,395.20"/>
    </edge>
    <edge id=":n17_11" function="internal">
        <lane id=":n17_11_0" index="0" speed="10.36" length="24.51" shape="-813.60,398.40 -806.95,399.35 -802.20,402.20 -799.35,406.95 -798.40,413.60"/>
    </edge>
    <edge id=":n18_0" function="internal">
        <lane id=":n18_0_0" index="0" speed="6.51" length="9.03" shape="-608.00,413.60 -608.35,411.15 -609.40,409.40 -611.15,408.35 -613.60,408.00"/>
    </edge>
    <edge id=":n18_1" function="internal">
        <lane id=":n18_1_0" index="0" speed="13.89" length="27.20" shape="-604.80,413.60 -604.80,386.40"/>
    </edge>
    <edge id=":n18_2" function="internal">
        <lane id=":n18_2_0" index="0" speed="10.36" length="13.42" shape="-601.60,413.60 -600.65,406.95 -597.80,402.20 -596.80,401.60"/>
    </edge>
    <edge id=":n18_12" function="internal">
        <lane id=":n18_12_0" index="0" speed="10.36" length="11.09" shape="-596.80,401.60 -593.05,399.35 -586.40,398.40"/>
    </edge>
    <edge id=":n18_3" function="internal">
        <lane id=":n18_3_0" index="0" speed="6.51" length="9.03" shape="-586.40,408.00 -588.85,408.35 -590.60,409.40 -591.65,411.15 -592.00,413.60"/>
    </edge>
    <edge id=":n18_4" function="internal">
        <lane id=":n18_4_0" index="0" speed="13.89" length="27.20" shape="-586.40,404.80 -613.60,404.80"/>
    </edge>
    <edge id=":n18_5" function="internal">
        <lane id=":n18_5_0" index="0" speed="10.36" length="24.51" shape="-586.40,401.60 -593.05,400.65 -597.80,397.80 -600.65,393.05 -601.60,386.40"/>
    </edge>
    <edge id=":n18_6" function="internal">
        <lane id=":n18_6_0" index="0" speed="6.51" length="9.03" shape="-592.00,386.40 -591.65,388.85 -590.60,390.60 -588.85,391.65 -586.40,392.00"/>
    </edge>
    <edge id=":n18_7" function="internal">
        <lane id=":n18_7_0" index="0" speed="13.89" length="27.20" shape="-595.20,386.40 -595.20,413.60"/>
    </edge>
    <edge id=":n18_8" function="internal">
        <lane id=":n18_8_0" index="0" speed="10.36" length="13.42" shape="-598.40,386.40 -599.35,393.05 -602.20,397.80 -603.20,398.40"/>
    </edge>
    <edge id=":n18_13" function="internal">
        <lane id=":n18_13_0" index="0" speed="10.36" length="11.09" shape="-603.20,398.40 -606.95,400.65 -613.60,401.60"/>
    </edge>
    <edge id=":n18_9" function="internal">
        <lane id=":n18_9_0" index="0" speed="6.51" length="9.03" shape="-613.60,392.00 -611.15,391.65 -609.40,390.60 -608.35,388.85 -608.00,386.40"/>
    </edge>
    <edge id=":n18_10" function="internal">
        <lane id=":n18_10_0" index="0" speed="13.89" length="27.20" shape="-613.60,395.20 -586.40,395.20"/>
    </edge>
    <edge id=":n18_11" function="internal">
        <lane id=":n18_11_0" index="0" speed="10.36" length="24.51" shape="-613.60,398.40 -606.95,399.35 -602.20,402.20 -599.35,406.95 -598.40,413.60"/>
    </edge>
    <edge id=":n19_0" function="internal">
        <lane id=":n19_0_0" index="0" speed="6.51" length="9.03" shape="-408.00,413.60 -408.35,411.15 -409.40,409.40 -411.15,408.35 -413.60,408.00"/>
    </edge>
    <edge id=":n19_1" function="internal">
        <lane id=":n19_1_0" index="0" speed="13.89" length="27.20" shape="-404.80,413.60 -404.80,386.40"/>
    </edge>
    <edge id=":n19_2" function="internal">
        <lane id=":n19_2_0" index="0" speed="10.36" length="13.42" shape="-401.60,413.60 -400.65,406.95 -397.80,402.20 -396.80,401.60"/>
    </edge>
    <edge id=":n19_12" function="internal">
        <lane id=":n19_12_0" index="0" speed="10.36" length="11.09" shape="-396.80,401.60 -393.05,399.35 -386.40,398.40"/>
    </edge>
    <edge id=":n19_3" function="internal">
        <lane id=":n19_3_0" index="0" speed="6.51" length="9.03" shape="-386.40,408.00 -388.85,408.35 -390.60,409.40 -391.65,411.15 -392.00,413.60"/>
    </edge>
    <edge id=":n19_4" function="internal">
        <lane id=":n19_4_0" index="0" speed="13.89" length="27.20" shape="-386.40,404.80 -413.60,404.80"/>
    </edge>
    <edge id=":n19_5" function="internal">
        <lane id=":n19_5_0" index="0" speed="10.36" length="24.51" shape="-386.40,401.60 -393.05,400.65 -397.80,397.80 -400.65,393.05 -401.60,386.40"/>
    </edge>
    <edge id=":n19_6" function="internal">
        <lane id=":n19_6_0" index="0" speed="6.51" length="9.03" shape="-392.00,386.40 -391.65,388.85 -390.60,390.60 -388.85,391.65 -386.40,392.00"/>
    </edge>
    <edge id=":n19_7" function="internal">
        <lane id=":n19_7_0" index="0" speed="13.89" length="27.20" shape="-395.20,386.40 -395.20,413.60"/>
    </edge>
    <edge id=":n19_8" function="internal">
        <lane id=":n19_8_0" index="0" speed="10.36" length="13.42" shape="-398.40,386.40 -399.35,393.05 -402.20,397.80 -403.20,398.40"/>
    </edge>
    <edge id=":n19_13" function="internal">
        <lane id=":n19_13_0" index="0" speed="10.36" length="11.09" shape="-403.20,398.40 -406.95,400.65 -413.60,401.60"/>
    </edge>
    <edge id=":n19_9" function="internal">
        <lane id=":n19_9_0" index="0" speed="6.51" length="9.03" shape="-413.60,392.00 -411.15,391.65 -409.40,390.60 -408.35,388.85 -408.00,386.40"/>
    </edge>
    <edge id=":n19_10" function="internal">
        <lane id=":n19_10_0" index="0" speed="13.89" length="27.20" shape="-413.60,395.20 -386.40,395.20"/>
    </edge>
    <edge id=":n19_11" function="internal">
        <lane id=":n19_11_0" index="0" speed="10.36" length="24.51" shape="-413.60,398.40 -406.95,399.35 -402.20,402.20 -399.35,406.95 -398.40,413.60"/>
    </edge>
    <edge id=":n2_0" function="internal">
        <lane id=":n2_0_0" index="0" speed="13.89" length="27.20" shape="-786.40,1008.00 -813.60,1008.00"/>
        <lane id=":n2_0_1" index="1" speed="13.89" length="27.20" shape="-786.40,1004.80 -813.60,1004.80"/>
    </edge>
    <edge id=":n2_2" function="internal">
        <lane id=":n2_2_0" index="0" speed="10.36" length="7.98" shape="-786.40,1001.60 -793.05,1000.65 -794.13,1000.00"/>
    </edge>
    <edge id=":n2_10" function="internal">
        <lane id=":n2_10_0" index="0" speed="10.36" length="16.53" shape="-794.13,1000.00 -797.80,997.80 -800.65,993.05 -801.60,986.40"/>
    </edge>
    <edge id=":n2_3" function="internal">
        <lane id=":n2_3_0" index="0" speed="6.51" length="9.03" shape="-792.00,986.40 -791.65,988.85 -790.60,990.60 -788.85,991.65 -786.40,992.00"/>
    </edge>
    <edge id=":n2_4" function="internal">
        <lane id=":n2_4_0" index="0" speed="8.00" length="14.19" shape="-795.20,986.40 -794.65,990.25 -793.00,993.00 -790.25,994.65 -786.40,995.20"/>
    </edge>
    <edge id=":n2_5" function="internal">
        <lane id=":n2_5_0" index="0" speed="11.36" length="29.67" shape="-795.20,986.40 -796.35,994.45 -799.80,1000.20 -805.55,1003.65 -813.60,1004.80"/>
    </edge>
    <edge id=":n2_6" function="internal">
        <lane id=":n2_6_0" index="0" speed="10.36" length="24.51" shape="-798.40,986.40 -799.35,993.05 -802.20,997.80 -806.95,1000.65 -813.60,1001.60"/>
    </edge>
    <edge id=":n2_7" function="internal">
        <lane id=":n2_7_0" index="0" speed="6.51" length="9.03" shape="-813.60,992.00 -811.15,991.65 -809.40,990.60 -808.35,988.85 -808.00,986.40"/>
    </edge>
    <edge id=":n2_8" function="internal">
        <lane id=":n2_8_0" index="0" speed="13.89" length="27.20" shape="-813.60,995.20 -786.40,995.20"/>
        <lane id=":n2_8_1" index="1" speed="13.89" length="27.20" shape="-813.60,998.40 -786.40,998.40"/>
    </edge>
    <edge id=":n20_0" function="internal">
        <lane id=":n20_0_0" index="0" speed="6.51" length="9.03" shape="-208.00,413.60 -208.35,411.15 -209.40,409.40 -211.15,408.35 -213.60,408.00"/>
    </edge>
    <edge id=":n20_1" function="internal">
        <lane id=":n20_1_0" index="0" speed="13.89" length="27.20" shape="-204.80,413.60 -204.80,386.40"/>
        <lane id=":n20_1_1" index="1" speed="13.89" length="27.20" shape="-201.60,413.60 -201.60,386.40"/>
    </edge>
    <edge id=":n20_3" function="internal">
        <lane id=":n20_3_0" index="0" speed="13.89" length="27.20" shape="-192.00,386.40 -192.00,413.60"/>
        <lane id=":n20_3_1" index="1" speed="13.89" length="27.20" shape="-195.20,386.40 -195.20,413.60"/>
    </edge>
    <edge id=":n20_5" function="internal">
        <lane id=":n20_5_0" index="0" speed="10.36" length="7.98" shape="-198.40,386.40 -199.35,393.05 -200.00,394.13"/>
    </edge>
    <edge id=":n20_10" function="internal">
        <lane id=":n20_10_0" index="0" speed="10.36" length="16.53" shape="-200.00,394.13 -202.20,397.80 -206.95,400.65 -213.60,401.60"/>
    </edge>
    <edge id=":n20_6" function="internal">
        <lane id=":n20_6_0" index="0" speed="6.51" length="9.03" shape="-213.60,392.00 -211.15,391.65 -209.40,390.60 -208.35,388.85 -208.00,386.40"/>
    </edge>
    <edge id=":n20_7" function="internal">
        <lane id=":n20_7_0" index="0" speed="8.00" length="14.19" shape="-213.60,395.20 -209.75,394.65 -207.00,393.00 -205.35,390.25 -204.80,386.40"/>
    </edge>
    <edge id=":n20_8" function="internal">
        <lane id=":n20_8_0" index="0" speed="11.36" length="29.67" shape="-213.60,395.20 -205.55,396.35 -199.80,399.80 -196.35,405.55 -195.20,413.60"/>
    </edge>
    <edge id=":n20_9" function="internal">
        <lane id=":n20_9_0" index="0" speed="10.36" length="24.51" shape="-213.60,398.40 -206.95,399.35 -202.20,402.20 -199.35,406.95 -198.40,413.60"/>
    </edge>
    <edge id=":n21_0" function="internal">
        <lane id=":n21_0_0" index="0" speed="11.12" length="28.38" shape="-1008.00,209.60 -1006.90,201.90 -1003.60,196.40 -998.10,193.10 -990.40,192.00"/>
    </edge>
    <edge id=":n21_1" function="internal">
        <lane id=":n21_1_0" index="0" speed="10.10" length="23.22" shape="-1004.80,209.60 -1003.90,203.30 -1001.20,198.80 -996.70,196.10 -990.40,195.20"/>
    </edge>
    <edge id=":n21_2" function="internal">
        <lane id=":n21_2_0" index="0" speed="8.96" length="18.06" shape="-1001.60,209.60 -1000.90,204.70 -998.80,201.20 -995.30,199.10 -990.40,198.40"/>
    </edge>
    <edge id=":n21_3" function="internal">
        <lane id=":n21_3_0" index="0" speed="3.90" length="2.58" shape="-990.40,208.00 -991.10,208.10 -991.60,208.40 -991.90,208.90 -992.00,209.60"/>
    </edge>
    <edge id=":n21_4" function="internal">