<?xml version="1.0" encoding="UTF-8"?>

<!-- generated on 11/12/20 11:28:32 by Eclipse SUMO netedit Version 1.7.0
<configuration xmlns:xsi="http://www.w3.org/2001/XMLSchema-instance" xsi:noNamespaceSchemaLocation="http://sumo.dlr.de/xsd/netconvertConfiguration.xsd">

    <input>
        <sumo-net-file value="C:\Users\marco\Downloads\intersection_reservation\intersection.net.xml"/>
    </input>

    <output>
        <output-file value="C:\Users\marco\Downloads\intersection_reservation\intersection.net.xml"/>
    </output>

    <processing>
        <geometry.min-radius.fix.railways value="false"/>
        <geometry.max-grade.fix value="false"/>
        <offset.disable-normalization value="true"/>
        <lefthand value="false"/>
    </processing>

    <junctions>
        <no-turnarounds value="true"/>
        <junctions.corner-detail value="5"/>
        <junctions.limit-turn-speed value="5.5"/>
        <rectangular-lane-cut value="false"/>
    </junctions>

    <pedestrian>
        <walkingareas value="false"/>
    </pedestrian>

    <report>
        <aggregate-warnings value="5"/>
    </report>

</configuration>
-->

<net version="1.6" junctionCornerDetail="5" limitTurnSpeed="5.50" xmlns:xsi="http://www.w3.org/2001/XMLSchema-instance" xsi:noNamespaceSchemaLocation="http://sumo.dlr.de/xsd/net_file.xsd">

    <location netOffset="0.00,0.00" convBoundary="-100.00,-100.00,100.00,100.00" origBoundary="-10000000000.00,-10000000000.00,10000000000.00,10000000000.00" projParameter="!"/>

    <edge id=":node5_0" function="internal">
        <lane id=":node5_0_0" index="0" speed="6.51" length="9.03" shape="-8.00,13.60 -8.35,11.15 -9.40,9.40 -11.15,8.35 -13.60,8.00"/>
    </edge>
    <edge id=":node5_1" function="internal">
        <lane id=":node5_1_0" index="0" speed="13.89" length="27.20" shape="-4.80,13.60 -4.80,-13.60"/>
    </edge>
    <edge id=":node5_2" function="internal">
        <lane id=":node5_2_0" index="0" speed="10.36" length="24.51" shape="-1.60,13.60 -0.65,6.95 2.20,2.20 6.95,-0.65 13.60,-1.60"/>
    </edge>
    <edge id=":node5_3" function="internal">
        <lane id=":node5_3_0" index="0" speed="6.51" length="9.03" shape="13.60,8.00 11.15,8.35 9.40,9.40 8.35,11.15 8.00,13.60"/>
    </edge>
    <edge id=":node5_4" function="internal">
        <lane id=":node5_4_0" index="0" speed="13.89" length="27.20" shape="13.60,4.80 -13.60,4.80"/>
    </edge>
    <edge id=":node5_5" function="internal">
        <lane id=":node5_5_0" index="0" speed="10.36" length="24.51" shape="13.60,1.60 6.95,0.65 2.20,-2.20 -0.65,-6.95 -1.60,-13.60"/>
    </edge>
    <edge id=":node5_6" function="internal">
        <lane id=":node5_6_0" index="0" speed="6.51" length="9.03" shape="8.00,-13.60 8.35,-11.15 9.40,-9.40 11.15,-8.35 13.60,-8.00"/>
    </edge>
    <edge id=":node5_7" function="internal">
        <lane id=":node5_7_0" index="0" speed="13.89" length="27.20" shape="4.80,-13.60 4.80,13.60"/>
    </edge>
    <edge id=":node5_8" function="internal">
        <lane id=":node5_8_0" index="0" speed="10.36" length="24.51" shape="1.60,-13.60 0.65,-6.95 -2.20,-2.20 -6.95,0.65 -13.60,1.60"/>
    </edge>
    <edge id=":node5_9" function="internal">
        <lane id=":node5_9_0" index="0" speed="6.51" length="9.03" shape="-13.60,-8.00 -11.15,-8.35 -9.40,-9.40 -8.35,-11.15 -8.00,-13.60"/>
    </edge>
    <edge id=":node5_10" function="internal">
        <lane id=":node5_10_0" index="0" speed="13.89" length="27.20" shape="-13.60,-4.80 13.60,-4.80"/>
    </edge>
    <edge id=":node5_11" function="internal">
        <lane id=":node5_11_0" index="0" speed="10.36" length="24.51" shape="-13.60,-1.60 -6.95,-0.65 -2.20,2.20 0.65,6.95 1.60,13.60"/>
    </edge>

    <edge id="1to5" from="node1" to="node5" priority="-1">
        <lane id="1to5_0" index="0" speed="13.89" length="86.40" shape="-100.00,-8.00 -13.60,-8.00"/>
        <lane id="1to5_1" index="1" speed="13.89" length="86.40" shape="-100.00,-4.80 -13.60,-4.80"/>
        <lane id="1to5_2" index="2" speed="13.89" length="86.40" shape="-100.00,-1.60 -13.60,-1.60"/>
    </edge>
    <edge id="2to5" from="node2" to="node5" priority="-1">
        <lane id="2to5_0" index="0" speed="13.89" length="86.40" shape="-8.00,100.00 -8.00,13.60"/>
        <lane id="2to5_1" index="1" speed="13.89" length="86.40" shape="-4.80,100.00 -4.80,13.60"/>
        <lane id="2to5_2" index="2" speed="13.89" length="86.40" shape="-1.60,100.00 -1.60,13.60"/>
    </edge>
    <edge id="3to5" from="node3" to="node5" priority="-1">
        <lane id="3to5_0" index="0" speed="13.89" length="86.40" shape="100.00,8.00 13.60,8.00"/>
        <lane id="3to5_1" index="1" speed="13.89" length="86.40" shape="100.00,4.80 13.60,4.80"/>
        <lane id="3to5_2" index="2" speed="13.89" length="86.40" shape="100.00,1.60 13.60,1.60"/>
    </edge>
    <edge id="4to5" from="node4" to="node5" priority="-1">
        <lane id="4to5_0" index="0" speed="13.89" length="86.40" shape="8.00,-100.00 8.00,-13.60"/>
        <lane id="4to5_1" index="1" speed="13.89" length="86.40" shape="4.80,-100.00 4.80,-13.60"/>
        <lane id="4to5_2" index="2" speed="13.89" length="86.40" shape="1.60,-100.00 1.60,-13.60"/>
    </edge>
    <edge id="5to1" from="node5" to="node1" priority="-1">
        <lane id="5to1_0" index="0" speed="13.89" length="86.40" shape="-13.60,8.00 -100.00,8.00"/>
        <lane id="5to1_1" index="1" speed="13.89" length="86.40" shape="-13.60,4.80 -100.00,4.80"/>
        <lane id="5to1_2" index="2" speed="13.89" length="86.40" shape="-13.60,1.60 -100.00,1.60"/>
    </edge>
    <edge id="5to2" from="node5" to="node2" priority="-1">
        <lane id="5to2_0" index="0" speed="13.89" length="86.40" shape="8.00,13.60 8.00,100.00"/>
        <lane id="5to2_1" index="1" speed="13.89" length="86.40" shape="4.80,13.60 4.80,100.00"/>
        <lane id="5to2_2" index="2" speed="13.89" length="86.40" shape="1.60,13.60 1.60,100.00"/>
    </edge>
    <edge id="5to3" from="node5" to="node3" priority="-1">
        <lane id="5to3_0" index="0" speed="13.89" length="86.40" shape="13.60,-8.00 100.00,-8.00"/>
        <lane id="5to3_1" index="1" speed="13.89" length="86.40" shape="13.60,-4.80 100.00,-4.80"/>
        <lane id="5to3_2" index="2" speed="13.89" length="86.40" shape="13.60,-1.60 100.00,-1.60"/>
    </edge>
    <edge id="5to4" from="node5" to="node4" priority="-1">
        <lane id="5to4_0" index="0" speed="13.89" length="86.40" shape="-8.00,-13.60 -8.00,-100.00"/>
        <lane id="5to4_1" index="1" speed="13.89" length="86.40" shape="-4.80,-13.60 -4.80,-100.00"/>
        <lane id="5to4_2" index="2" speed="13.89" length="86.40" shape="-1.60,-13.60 -1.60,-100.00"/>
    </edge>

    <tlLogic id="node5" type="static" programID="0" offset="0">
        <phase duration="33" state="GGGGGGGGGGGG"/>
    </tlLogic>

    <junction id="node1" type="dead_end" x="-100.00" y="0.00" incLanes="5to1_0 5to1_1 5to1_2" intLanes="" shape="-100.00,0.00 -100.00,9.60 -100.00,0.00"/>
    <junction id="node2" type="dead_end" x="0.00" y="100.00" incLanes="5to2_0 5to2_1 5to2_2" intLanes="" shape="0.00,100.00 9.60,100.00 0.00,100.00"/>
    <junction id="node3" type="dead_end" x="100.00" y="0.00" incLanes="5to3_0 5to3_1 5to3_2" intLanes="" shape="100.00,0.00 100.00,-9.60 100.00,0.00"/>
    <junction id="node4" type="dead_end" x="0.00" y="-100.00" incLanes="5to4_0 5to4_1 5to4_2" intLanes="" shape="0.00,-100.00 -9.60,-100.00 0.00,-100.00"/>
    <junction id="node5" type="traffic_light" x="0.00" y="0.00" incLanes="2to5_0 2to5_1 2to5_2 3to5_0 3to5_1 3to5_2 4to5_0 4to5_1 4to5_2 1to5_0 1to5_1 1to5_2" intLanes=":node5_0_0 :node5_1_0 :node5_2_0 :node5_3_0 :node5_4_0 :node5_5_0 :node5_6_0 :node5_7_0 :node5_8_0 :node5_9_0 :node5_10_0 :node5_11_0" shape="-9.60,13.60 9.60,13.60 10.04,11.38 10.60,10.60 11.38,10.04 12.38,9.71 13.60,9.60 13.60,-9.60 11.38,-10.04 10.60,-10.60 10.04,-11.38 9.71,-12.38 9.60,-13.60 -9.60,-13.60 -10.04,-11.38 -10.60,-10.60 -11.38,-10.04 -12.38,-9.71 -13.60,-9.60 -13.60,9.60 -11.38,10.04 -10.60,10.60 -10.04,11.38 -9.71,12.38">
        <request index="0"  response="000000000000" foes="000000000000" cont="0"/>
        <request index="1"  response="000000000000" foes="110100010000" cont="0"/>
        <request index="2"  response="000010000000" foes="100010110000" cont="0"/>
        <request index="3"  response="000000000000" foes="000000000000" cont="0"/>
        <request index="4"  response="000010000110" foes="100010000110" cont="0"/>
        <request index="5"  response="010110000100" foes="010110000100" cont="0"/>
        <request index="6"  response="000000000000" foes="000000000000" cont="0"/>
        <request index="7"  response="000000000000" foes="010000110100" cont="0"/>
        <request index="8"  response="000000000010" foes="110000100010" cont="0"/>
        <request index="9"  response="000000000000" foes="000000000000" cont="0"/>
        <request index="10" response="000110000010" foes="000110100010" cont="0"/>
        <request index="11" response="000100010110" foes="000100010110" cont="0"/>
    </junction>

    <connection from="1to5" to="5to4" fromLane="0" toLane="0" via=":node5_9_0" tl="node5" linkIndex="9" dir="r" state="O"/>
    <connection from="1to5" to="5to3" fromLane="1" toLane="1" via=":node5_10_0" tl="node5" linkIndex="10" dir="s" state="o"/>
    <connection from="1to5" to="5to2" fromLane="2" toLane="2" via=":node5_11_0" tl="node5" linkIndex="11" dir="l" state="o"/>
    <connection from="2to5" to="5to1" fromLane="0" toLane="0" via=":node5_0_0" tl="node5" linkIndex="0" dir="r" state="O"/>
    <connection from="2to5" to="5to4" fromLane="1" toLane="1" via=":node5_1_0" tl="node5" linkIndex="1" dir="s" state="O"/>
    <connection from="2to5" to="5to3" fromLane="2" toLane="2" via=":node5_2_0" tl="node5" linkIndex="2" dir="l" state="o"/>
    <connection from="3to5" to="5to2" fromLane="0" toLane="0" via=":node5_3_0" tl="node5" linkIndex="3" dir="r" state="O"/>
    <connection from="3to5" to="5to1" fromLane="1" toLane="1" via=":node5_4_0" tl="node5" linkIndex="4" dir="s" state="o"/>
    <connection from="3to5" to="5to4" fromLane="2" toLane="2" via=":node5_5_0" tl="node5" linkIndex="5" dir="l" state="o"/>
    <connection from="4to5" to="5to3" fromLane="0" toLane="0" via=":node5_6_0" tl="node5" linkIndex="6" dir="r" state="O"/>
    <connection from="4to5" to="5to2" fromLane="1" toLane="1" via=":node5_7_0" tl="node5" linkIndex="7" dir="s" state="O"/>
    <connection from="4to5" to="5to1" fromLane="2" toLane="2" via=":node5_8_0" tl="node5" linkIndex="8" dir="l" state="o"/>

    <connection from=":node5_0" to="5to1" fromLane="0" toLane="0" dir="r" state="M"/>
    <connection from=":node5_1" to="5to4" fromLane="0" toLane="1" dir="s" state="M"/>
    <connection from=":node5_2" to="5to3" fromLane="0" toLane="2" dir="l" state="M"/>
    <connection from=":node5_3" to="5to2" fromLane="0" toLane="0" dir="r" state="M"/>
    <connection from=":node5_4" to="5to1" fromLane="0" toLane="1" dir="s" state="M"/>
    <connection from=":node5_5" to="5to4" fromLane="0" toLane="2" dir="l" state="M"/>
    <connection from=":node5_6" to="5to3" fromLane="0" toLane="0" dir="r" state="M"/>
    <connection from=":node5_7" to="5to2" fromLane="0" toLane="1" dir="s" state="M"/>
    <connection from=":node5_8" to="5to1" fromLane="0" toLane="2" dir="l" state="M"/>
    <connection from=":node5_9" to="5to4" fromLane="0" toLane="0" dir="r" state="M"/>
    <connection from=":node5_10" to="5to3" fromLane="0" toLane="1" dir="s" state="M"/>
    <connection from=":node5_11" to="5to2" fromLane="0" toLane="2" dir="l" state="M"/>

</net>
